
  SciTegic11272012012D

 26 29  0  0  0  0            999 V2000
    2.1456    0.2461    0.0000 C   0  0
    2.1446   -0.4139    0.0000 C   0  0
    2.8584   -0.8275    0.0000 C   0  0
    3.4305   -0.4984    0.0000 F   0  0
    2.8570   -1.6525    0.0000 C   0  0
    2.1419   -2.0639    0.0000 N   0  0
    1.4281   -1.6503    0.0000 C   0  0
    1.4293   -0.8252    0.0000 C   0  0
    0.7145   -0.4125    0.0000 C   0  0
    0.7145    0.4125    0.0000 C   0  0
    0.0000    0.8250    0.0000 C   0  0
   -0.7145    0.4125    0.0000 C   0  0
   -1.4290    0.8250    0.0000 C   0  0
   -2.1435    0.4125    0.0000 C   0  0
   -2.8592    0.8238    0.0000 N   0  0
   -3.5735    0.4100    0.0000 C   0  0
   -3.5723   -0.2500    0.0000 O   0  0
   -4.2892    0.8213    0.0000 C   0  0
   -4.6582    1.5106    0.0000 C   0  0
   -5.0707    0.7961    0.0000 C   0  0
   -5.6369    0.4571    0.0000 F   0  0
   -2.1435   -0.4125    0.0000 N   0  0
   -1.4290   -0.8250    0.0000 C   0  0
   -0.7145   -0.4125    0.0000 C   0  0
    0.0000   -0.8250    0.0000 C   0  0
   -2.8602    1.3738    0.0000 H   0  0
  1  2  1  0
  2  3  2  0
  3  4  1  0
  3  5  1  0
  5  6  2  0
  6  7  1  0
  7  8  2  0
  8  2  1  0
  8  9  1  0
  9 10  2  0
 10 11  1  0
 11 12  2  0
 12 13  1  0
 13 14  2  0
 14 15  1  0
 14 22  1  0
 15 16  1  0
 15 26  1  0
 16 17  2  0
 16 18  1  0
 18 19  1  0
 19 20  1  0
 20 18  1  0
 20 21  1  0
 22 23  2  0
 23 24  1  0
 24 12  1  0
 24 25  2  0
 25  9  1  0
M  END
> <CMPD_CHEMBLID>
CHEMBL3689722

> <STANDARD_TYPE>
Ki

> <RELATION>
=

> <STANDARD_VALUE>
0.0186

> <STANDARD_UNITS>
nM

> <Molecular_Weight>
339.33871

$$$$

  SciTegic11272012012D

 25 28  0  0  0  0            999 V2000
    2.1456    0.2461    0.0000 C   0  0
    2.1446   -0.4139    0.0000 C   0  0
    2.8584   -0.8275    0.0000 C   0  0
    2.8570   -1.6525    0.0000 C   0  0
    2.1419   -2.0639    0.0000 N   0  0
    1.4281   -1.6503    0.0000 C   0  0
    1.4293   -0.8252    0.0000 C   0  0
    0.7145   -0.4125    0.0000 C   0  0
    0.7145    0.4125    0.0000 C   0  0
    0.0000    0.8250    0.0000 C   0  0
   -0.7145    0.4125    0.0000 C   0  0
   -1.4290    0.8250    0.0000 C   0  0
   -2.1435    0.4125    0.0000 C   0  0
   -2.8592    0.8238    0.0000 N   0  0
   -3.5735    0.4100    0.0000 C   0  0
   -3.5723   -0.2500    0.0000 O   0  0
   -4.2892    0.8213    0.0000 C   0  0
   -4.6582    1.5106    0.0000 C   0  0
   -5.0707    0.7961    0.0000 C   0  0
   -5.6369    0.4571    0.0000 F   0  0
   -2.1435   -0.4125    0.0000 N   0  0
   -1.4290   -0.8250    0.0000 C   0  0
   -0.7145   -0.4125    0.0000 C   0  0
    0.0000   -0.8250    0.0000 C   0  0
   -2.8602    1.3738    0.0000 H   0  0
  1  2  1  0
  2  3  2  0
  3  4  1  0
  4  5  2  0
  5  6  1  0
  6  7  2  0
  7  2  1  0
  7  8  1  0
  8  9  2  0
  9 10  1  0
 10 11  2  0
 11 12  1  0
 12 13  2  0
 13 14  1  0
 13 21  1  0
 14 15  1  0
 14 25  1  0
 15 16  2  0
 15 17  1  0
 17 18  1  0
 18 19  1  0
 19 17  1  0
 19 20  1  0
 21 22  2  0
 22 23  1  0
 23 11  1  0
 23 24  2  0
 24  8  1  0
M  END
> <CMPD_CHEMBLID>
CHEMBL3685101

> <STANDARD_TYPE>
Ki

> <RELATION>
=

> <STANDARD_VALUE>
0.02

> <STANDARD_UNITS>
nM

> <Molecular_Weight>
321.34824

$$$$

  SciTegic11272012012D

 32 35  0  0  0  0            999 V2000
    2.1456    0.2461    0.0000 C   0  0
    2.1445   -0.4139    0.0000 C   0  0
    2.8583   -0.8275    0.0000 C   0  0
    2.8570   -1.6525    0.0000 C   0  0
    2.1419   -2.0639    0.0000 N   0  0
    1.4281   -1.6502    0.0000 C   0  0
    1.4293   -0.8252    0.0000 C   0  0
    0.7145   -0.4125    0.0000 C   0  0
    0.7145    0.4125    0.0000 C   0  0
    0.0000    0.8250    0.0000 C   0  0
   -0.7145    0.4125    0.0000 C   0  0
   -1.4290    0.8250    0.0000 C   0  0
   -2.1434    0.4125    0.0000 C   0  0
   -2.8591    0.8237    0.0000 N   0  0
   -3.5734    0.4100    0.0000 C   0  0
   -3.5723   -0.2500    0.0000 O   0  0
   -4.2891    0.8213    0.0000 C   0  0
   -4.6581    1.5106    0.0000 C   0  0
   -5.0706    0.7961    0.0000 C   0  0
   -5.6368    0.4571    0.0000 F   0  0
   -2.1434   -0.4125    0.0000 N   0  0
   -1.4290   -0.8250    0.0000 C   0  0
   -0.7145   -0.4125    0.0000 C   0  0
    0.0000   -0.8250    0.0000 C   0  0
    3.5703   -2.0678    0.0000 C   0  0
    4.2858   -1.6560    0.0000 O   0  0
    3.5679   -2.8933    0.0000 C   0  0
    4.1383   -3.2254    0.0000 F   0  0
    3.5656   -3.5533    0.0000 F   0  0
    2.9952   -3.2214    0.0000 F   0  0
    4.2868   -1.1060    0.0000 H   0  0
   -2.8601    1.3737    0.0000 H   0  0
  1  2  1  0
  2  3  2  0
  3  4  1  0
  4  5  2  0
  4 25  1  0
  5  6  1  0
  6  7  2  0
  7  2  1  0
  7  8  1  0
  8  9  2  0
  9 10  1  0
 10 11  2  0
 11 12  1  0
 12 13  2  0
 13 14  1  0
 13 21  1  0
 14 15  1  0
 14 32  1  0
 15 16  2  0
 15 17  1  0
 17 18  1  0
 18 19  1  0
 19 17  1  0
 19 20  1  0
 21 22  2  0
 22 23  1  0
 23 11  1  0
 23 24  2  0
 24  8  1  0
 25 26  1  0
 25 27  1  0
 26 31  1  0
 27 28  1  0
 27 29  1  0
 27 30  1  0
M  END
> <CMPD_CHEMBLID>
CHEMBL3689631

> <STANDARD_TYPE>
Ki

> <RELATION>
=

> <STANDARD_VALUE>
0.02

> <STANDARD_UNITS>
nM

> <Molecular_Weight>
419.37219

$$$$

  SciTegic11272012012D

 28 31  0  0  0  0            999 V2000
    2.1456    0.2461    0.0000 C   0  0
    2.1445   -0.4139    0.0000 C   0  0
    2.8583   -0.8275    0.0000 C   0  0
    3.4305   -0.4984    0.0000 F   0  0
    2.8570   -1.6525    0.0000 C   0  0
    3.5704   -2.0679    0.0000 C   0  0
    3.5679   -2.8933    0.0000 O   0  0
    2.1419   -2.0639    0.0000 N   0  0
    1.4281   -1.6502    0.0000 C   0  0
    1.4293   -0.8252    0.0000 C   0  0
    0.7145   -0.4125    0.0000 C   0  0
    0.7145    0.4125    0.0000 C   0  0
    0.0000    0.8250    0.0000 C   0  0
   -0.7145    0.4125    0.0000 C   0  0
   -1.4290    0.8250    0.0000 C   0  0
   -2.1434    0.4125    0.0000 C   0  0
   -2.8592    0.8237    0.0000 N   0  0
   -3.5735    0.4100    0.0000 C   0  0
   -3.5723   -0.2500    0.0000 O   0  0
   -4.2892    0.8213    0.0000 C   0  0
   -5.0706    0.7961    0.0000 C   0  0
   -4.6581    1.5106    0.0000 C   0  0
   -2.1434   -0.4125    0.0000 N   0  0
   -1.4290   -0.8250    0.0000 C   0  0
   -0.7145   -0.4125    0.0000 C   0  0
    0.0000   -0.8250    0.0000 C   0  0
   -2.8601    1.3738    0.0000 H   0  0
    4.0432   -3.1701    0.0000 H   0  0
  1  2  1  0
  2  3  2  0
  3  4  1  0
  3  5  1  0
  5  6  1  0
  5  8  2  0
  6  7  1  0
  7 28  1  0
  8  9  1  0
  9 10  2  0
 10  2  1  0
 10 11  1  0
 11 12  2  0
 12 13  1  0
 13 14  2  0
 14 15  1  0
 15 16  2  0
 16 17  1  0
 16 23  1  0
 17 18  1  0
 17 27  1  0
 18 19  2  0
 18 20  1  0
 20 21  1  0
 21 22  1  0
 22 20  1  0
 23 24  2  0
 24 25  1  0
 25 14  1  0
 25 26  2  0
 26 11  1  0
M  END
> <CMPD_CHEMBLID>
CHEMBL3689554

> <STANDARD_TYPE>
Ki

> <RELATION>
=

> <STANDARD_VALUE>
0.02

> <STANDARD_UNITS>
nM

> <Molecular_Weight>
351.37422

$$$$

  SciTegic11272012012D

 26 29  0  0  0  0            999 V2000
    2.1456    0.2461    0.0000 C   0  0
    2.1445   -0.4139    0.0000 C   0  0
    2.8583   -0.8275    0.0000 C   0  0
    2.8570   -1.6525    0.0000 C   0  0
    2.1419   -2.0639    0.0000 C   0  0
    2.1389   -2.8894    0.0000 O   0  0
    1.4281   -1.6502    0.0000 C   0  0
    1.4293   -0.8252    0.0000 C   0  0
    0.7145   -0.4125    0.0000 C   0  0
    0.7145    0.4125    0.0000 C   0  0
    0.0000    0.8250    0.0000 C   0  0
   -0.7145    0.4125    0.0000 C   0  0
   -1.4290    0.8250    0.0000 C   0  0
   -2.1434    0.4125    0.0000 C   0  0
   -2.8592    0.8237    0.0000 N   0  0
   -3.5735    0.4100    0.0000 C   0  0
   -3.5723   -0.2500    0.0000 O   0  0
   -4.2892    0.8213    0.0000 C   0  0
   -5.0706    0.7961    0.0000 C   0  0
   -4.6581    1.5106    0.0000 C   0  0
   -2.1434   -0.4125    0.0000 N   0  0
   -1.4290   -0.8250    0.0000 C   0  0
   -0.7145   -0.4125    0.0000 C   0  0
    0.0000   -0.8250    0.0000 C   0  0
   -2.8601    1.3738    0.0000 H   0  0
    1.6617   -3.1629    0.0000 H   0  0
  1  2  1  0
  2  3  2  0
  3  4  1  0
  4  5  2  0
  5  6  1  0
  5  7  1  0
  6 26  1  0
  7  8  2  0
  8  2  1  0
  8  9  1  0
  9 10  2  0
 10 11  1  0
 11 12  2  0
 12 13  1  0
 13 14  2  0
 14 15  1  0
 14 21  1  0
 15 16  1  0
 15 25  1  0
 16 17  2  0
 16 18  1  0
 18 19  1  0
 19 20  1  0
 20 18  1  0
 21 22  2  0
 22 23  1  0
 23 12  1  0
 23 24  2  0
 24  9  1  0
M  END
> <CMPD_CHEMBLID>
CHEMBL3685056

> <STANDARD_TYPE>
Ki

> <RELATION>
=

> <STANDARD_VALUE>
0.02

> <STANDARD_UNITS>
nM

> <Molecular_Weight>
318.36912

$$$$

  SciTegic11272012012D

 31 34  0  0  0  0            999 V2000
    1.2861   -0.7425    0.0000 C   0  0
    0.7144   -0.4125    0.0000 N   0  0
    0.7144    0.4125    0.0000 C   0  0
    1.2861    0.7425    0.0000 O   0  0
    0.0000    0.8250    0.0000 C   0  0
   -0.7144    0.4125    0.0000 C   0  0
   -0.7144   -0.4125    0.0000 C   0  0
   -1.4290   -0.8250    0.0000 C   0  0
   -1.4290   -1.6500    0.0000 N   0  0
   -0.7144   -2.0625    0.0000 C   0  0
   -0.7127   -2.8879    0.0000 N   0  0
    0.0027   -3.2997    0.0000 C   0  0
    0.0056   -4.1247    0.0000 C   0  0
    0.7215   -4.5347    0.0000 C   0  0
    1.4345   -4.1197    0.0000 C   0  0
    1.4317   -3.2947    0.0000 C   0  0
    2.1442   -2.8780    0.0000 N   0  0
    0.7158   -2.8847    0.0000 C   0  0
    0.0000   -1.6500    0.0000 N   0  0
    0.0000   -0.8250    0.0000 C   0  0
    0.0000    1.6504    0.0000 C   0  0
    0.7138    2.0641    0.0000 C   0  0
    1.2859    1.7350    0.0000 Cl  0  0
    0.7125    2.8891    0.0000 C   0  0
   -0.0026    3.3005    0.0000 C   0  0
   -0.7164    2.8868    0.0000 C   0  0
   -0.7151    2.0618    0.0000 C   0  0
   -1.2862    1.7310    0.0000 Cl  0  0
    2.1416   -2.3281    0.0000 H   0  0
    2.6220   -3.1506    0.0000 H   0  0
   -1.1886   -3.1638    0.0000 H   0  0
  1  2  1  0
  2  3  1  0
  3  4  2  0
  3  5  1  0
  5  6  2  0
  5 21  1  0
  6  7  1  0
  7  8  2  0
  8  9  1  0
  9 10  2  0
 10 11  1  0
 10 19  1  0
 11 12  1  0
 11 31  1  0
 12 13  2  0
 13 14  1  0
 14 15  2  0
 15 16  1  0
 16 17  1  0
 16 18  2  0
 17 29  1  0
 17 30  1  0
 18 12  1  0
 19 20  2  0
 20  2  1  0
 20  7  1  0
 21 22  2  0
 22 23  1  0
 22 24  1  0
 24 25  2  0
 25 26  1  0
 26 27  2  0
 27 21  1  0
 27 28  1  0
M  END
> <CMPD_CHEMBLID>
CHEMBL577269

> <STANDARD_TYPE>
Ki

> <RELATION>
=

> <STANDARD_VALUE>
0.02

> <STANDARD_UNITS>
nM

> <Molecular_Weight>
412.272

$$$$

  SciTegic11272012012D

 27 30  0  0  0  0            999 V2000
    2.1456    0.2461    0.0000 C   0  0
    2.1445   -0.4139    0.0000 C   0  0
    2.8583   -0.8275    0.0000 C   0  0
    2.8570   -1.6525    0.0000 C   0  0
    3.5703   -2.0678    0.0000 C   0  0
    3.5679   -2.8933    0.0000 O   0  0
    2.1419   -2.0639    0.0000 N   0  0
    1.4281   -1.6502    0.0000 C   0  0
    1.4293   -0.8252    0.0000 C   0  0
    0.7145   -0.4125    0.0000 C   0  0
    0.7145    0.4125    0.0000 C   0  0
    0.0000    0.8250    0.0000 C   0  0
   -0.7145    0.4125    0.0000 C   0  0
   -1.4290    0.8250    0.0000 C   0  0
   -2.1434    0.4125    0.0000 C   0  0
   -2.8591    0.8237    0.0000 N   0  0
   -3.5734    0.4100    0.0000 C   0  0
   -3.5723   -0.2500    0.0000 O   0  0
   -4.2891    0.8213    0.0000 C   0  0
   -5.0706    0.7961    0.0000 C   0  0
   -4.6581    1.5106    0.0000 C   0  0
   -2.1434   -0.4125    0.0000 N   0  0
   -1.4290   -0.8250    0.0000 C   0  0
   -0.7145   -0.4125    0.0000 C   0  0
    0.0000   -0.8250    0.0000 C   0  0
   -2.8601    1.3737    0.0000 H   0  0
    4.0432   -3.1701    0.0000 H   0  0
  1  2  1  0
  2  3  2  0
  3  4  1  0
  4  5  1  0
  4  7  2  0
  5  6  1  0
  6 27  1  0
  7  8  1  0
  8  9  2  0
  9  2  1  0
  9 10  1  0
 10 11  2  0
 11 12  1  0
 12 13  2  0
 13 14  1  0
 14 15  2  0
 15 16  1  0
 15 22  1  0
 16 17  1  0
 16 26  1  0
 17 18  2  0
 17 19  1  0
 19 20  1  0
 20 21  1  0
 21 19  1  0
 22 23  2  0
 23 24  1  0
 24 13  1  0
 24 25  2  0
 25 10  1  0
M  END
> <CMPD_CHEMBLID>
CHEMBL3685180

> <STANDARD_TYPE>
Ki

> <RELATION>
=

> <STANDARD_VALUE>
0.02

> <STANDARD_UNITS>
nM

> <Molecular_Weight>
333.38376

$$$$

  SciTegic11272012012D

 36 39  0  0  0  0            999 V2000
    1.2861   -0.7425    0.0000 C   0  0
    0.7144   -0.4125    0.0000 N   0  0
    0.7144    0.4125    0.0000 C   0  0
    1.2861    0.7425    0.0000 O   0  0
    0.0000    0.8250    0.0000 C   0  0
   -0.7144    0.4125    0.0000 C   0  0
   -0.7144   -0.4125    0.0000 C   0  0
   -1.4290   -0.8250    0.0000 C   0  0
   -1.4290   -1.6500    0.0000 N   0  0
   -0.7144   -2.0625    0.0000 C   0  0
   -0.7127   -2.8879    0.0000 N   0  0
    0.0027   -3.2997    0.0000 C   0  0
    0.0056   -4.1247    0.0000 C   0  0
    0.7215   -4.5347    0.0000 C   0  0
    1.4345   -4.1197    0.0000 C   0  0
    1.4317   -3.2947    0.0000 C   0  0
    2.1442   -2.8780    0.0000 N   0  0
    2.1402   -2.0526    0.0000 C   0  0
    1.5670   -1.7256    0.0000 O   0  0
    2.8528   -1.6360    0.0000 C   0  0
    2.8488   -0.8105    0.0000 N   0  0
    0.7158   -2.8847    0.0000 C   0  0
    0.0000   -1.6500    0.0000 N   0  0
    0.0000   -0.8250    0.0000 C   0  0
    0.0000    1.6504    0.0000 C   0  0
    0.7138    2.0641    0.0000 C   0  0
    1.2859    1.7350    0.0000 Cl  0  0
    0.7125    2.8891    0.0000 C   0  0
   -0.0026    3.3005    0.0000 C   0  0
   -0.7164    2.8868    0.0000 C   0  0
   -0.7151    2.0618    0.0000 C   0  0
   -1.2862    1.7310    0.0000 Cl  0  0
    3.3235   -0.5329    0.0000 H   0  0
    2.3710   -0.5380    0.0000 H   0  0
    2.6220   -3.1506    0.0000 H   0  0
   -1.1886   -3.1638    0.0000 H   0  0
  1  2  1  0
  2  3  1  0
  3  4  2  0
  3  5  1  0
  5  6  2  0
  5 25  1  0
  6  7  1  0
  7  8  2  0
  8  9  1  0
  9 10  2  0
 10 11  1  0
 10 23  1  0
 11 12  1  0
 11 36  1  0
 12 13  2  0
 13 14  1  0
 14 15  2  0
 15 16  1  0
 16 17  1  0
 16 22  2  0
 17 18  1  0
 17 35  1  0
 18 19  2  0
 18 20  1  0
 20 21  1  0
 21 33  1  0
 21 34  1  0
 22 12  1  0
 23 24  2  0
 24  2  1  0
 24  7  1  0
 25 26  2  0
 26 27  1  0
 26 28  1  0
 28 29  2  0
 29 30  1  0
 30 31  2  0
 31 25  1  0
 31 32  1  0
M  END
> <CMPD_CHEMBLID>
CHEMBL1221411

> <STANDARD_TYPE>
Ki

> <RELATION>
=

> <STANDARD_VALUE>
0.02

> <STANDARD_UNITS>
nM

> <Molecular_Weight>
469.32332

$$$$

  SciTegic11272012012D

 29 33  0  0  0  0            999 V2000
    0.8560   -1.9793    0.0000 C   0  0
    1.4281   -1.6502    0.0000 C   0  0
    2.1419   -2.0639    0.0000 C   0  0
    2.8570   -1.6525    0.0000 C   0  0
    2.8583   -0.8275    0.0000 C   0  0
    3.4720   -0.2768    0.0000 N   0  0
    3.1376    0.4773    0.0000 N   0  0
    2.3170    0.3924    0.0000 C   0  0
    2.1445   -0.4139    0.0000 C   0  0
    1.4293   -0.8252    0.0000 C   0  0
    0.7144   -0.4125    0.0000 C   0  0
    0.7144    0.4125    0.0000 C   0  0
    0.0000    0.8250    0.0000 C   0  0
    0.0000    1.6500    0.0000 C   0  0
   -0.7145    2.0625    0.0000 N   0  0
   -1.4290    1.6500    0.0000 C   0  0
   -2.1447    2.0612    0.0000 N   0  0
   -2.8590    1.6475    0.0000 C   0  0
   -2.8578    0.9875    0.0000 O   0  0
   -3.5747    2.0588    0.0000 C   0  0
   -3.9436    2.7481    0.0000 C   0  0
   -4.3561    2.0337    0.0000 C   0  0
   -4.9223    1.6946    0.0000 F   0  0
   -1.4290    0.8250    0.0000 C   0  0
   -0.7144    0.4125    0.0000 C   0  0
   -0.7144   -0.4125    0.0000 C   0  0
    0.0000   -0.8250    0.0000 N   0  0
   -2.1457    2.6112    0.0000 H   0  0
    4.0098   -0.3921    0.0000 H   0  0
  1  2  1  0
  2  3  2  0
  3  4  1  0
  4  5  2  0
  5  6  1  0
  6  7  1  0
  6 29  1  0
  7  8  2  0
  8  9  1  0
  9  5  1  0
  9 10  2  0
 10  2  1  0
 10 11  1  0
 11 12  2  0
 12 13  1  0
 13 14  2  0
 14 15  1  0
 15 16  2  0
 16 17  1  0
 16 24  1  0
 17 18  1  0
 17 28  1  0
 18 19  2  0
 18 20  1  0
 20 21  1  0
 21 22  1  0
 22 20  1  0
 22 23  1  0
 24 25  2  0
 25 13  1  0
 25 26  1  0
 26 27  2  0
 27 11  1  0
M  END
> <CMPD_CHEMBLID>
CHEMBL3689678

> <STANDARD_TYPE>
Ki

> <RELATION>
=

> <STANDARD_VALUE>
0.02

> <STANDARD_UNITS>
nM

> <Molecular_Weight>
361.37234

$$$$

  SciTegic11272012012D

 25 28  0  0  0  0            999 V2000
    2.1456    0.2461    0.0000 C   0  0
    2.1446   -0.4139    0.0000 C   0  0
    2.8584   -0.8275    0.0000 C   0  0
    3.4305   -0.4984    0.0000 F   0  0
    2.8570   -1.6525    0.0000 C   0  0
    2.1419   -2.0639    0.0000 N   0  0
    1.4281   -1.6503    0.0000 C   0  0
    1.4293   -0.8252    0.0000 C   0  0
    0.7145   -0.4125    0.0000 C   0  0
    0.7145    0.4125    0.0000 C   0  0
    0.0000    0.8250    0.0000 C   0  0
   -0.7145    0.4125    0.0000 C   0  0
   -1.4290    0.8250    0.0000 C   0  0
   -2.1435    0.4125    0.0000 C   0  0
   -2.8592    0.8238    0.0000 N   0  0
   -3.5735    0.4100    0.0000 C   0  0
   -3.5723   -0.2500    0.0000 O   0  0
   -4.2892    0.8213    0.0000 C   0  0
   -5.0707    0.7961    0.0000 C   0  0
   -4.6582    1.5106    0.0000 C   0  0
   -2.1435   -0.4125    0.0000 N   0  0
   -1.4290   -0.8250    0.0000 C   0  0
   -0.7145   -0.4125    0.0000 C   0  0
    0.0000   -0.8250    0.0000 C   0  0
   -2.8602    1.3738    0.0000 H   0  0
  1  2  1  0
  2  3  2  0
  3  4  1  0
  3  5  1  0
  5  6  2  0
  6  7  1  0
  7  8  2  0
  8  2  1  0
  8  9  1  0
  9 10  2  0
 10 11  1  0
 11 12  2  0
 12 13  1  0
 13 14  2  0
 14 15  1  0
 14 21  1  0
 15 16  1  0
 15 25  1  0
 16 17  2  0
 16 18  1  0
 18 19  1  0
 19 20  1  0
 20 18  1  0
 21 22  2  0
 22 23  1  0
 23 12  1  0
 23 24  2  0
 24  9  1  0
M  END
> <CMPD_CHEMBLID>
CHEMBL3639840

> <STANDARD_TYPE>
Ki

> <RELATION>
=

> <STANDARD_VALUE>
0.02

> <STANDARD_UNITS>
nM

> <Molecular_Weight>
321.34824

$$$$

  SciTegic11272012012D

 27 30  0  0  0  0            999 V2000
    2.1456    0.2461    0.0000 C   0  0
    2.1445   -0.4139    0.0000 C   0  0
    2.8583   -0.8275    0.0000 C   0  0
    2.8570   -1.6525    0.0000 C   0  0
    2.1419   -2.0639    0.0000 C   0  0
    2.1389   -2.8893    0.0000 C   0  0
    1.4227   -3.2999    0.0000 O   0  0
    1.4281   -1.6502    0.0000 C   0  0
    1.4293   -0.8252    0.0000 C   0  0
    0.7145   -0.4125    0.0000 C   0  0
    0.7145    0.4125    0.0000 C   0  0
    0.0000    0.8250    0.0000 C   0  0
   -0.7145    0.4125    0.0000 C   0  0
   -1.4290    0.8250    0.0000 C   0  0
   -2.1434    0.4125    0.0000 C   0  0
   -2.8591    0.8237    0.0000 N   0  0
   -3.5734    0.4100    0.0000 C   0  0
   -3.5723   -0.2500    0.0000 O   0  0
   -4.2891    0.8213    0.0000 C   0  0
   -5.0706    0.7961    0.0000 C   0  0
   -4.6581    1.5106    0.0000 C   0  0
   -2.1434   -0.4125    0.0000 N   0  0
   -1.4290   -0.8250    0.0000 C   0  0
   -0.7145   -0.4125    0.0000 C   0  0
    0.0000   -0.8250    0.0000 C   0  0
   -2.8601    1.3737    0.0000 H   0  0
    1.4208   -3.8499    0.0000 H   0  0
  1  2  1  0
  2  3  2  0
  3  4  1  0
  4  5  2  0
  5  6  1  0
  5  8  1  0
  6  7  1  0
  7 27  1  0
  8  9  2  0
  9  2  1  0
  9 10  1  0
 10 11  2  0
 11 12  1  0
 12 13  2  0
 13 14  1  0
 14 15  2  0
 15 16  1  0
 15 22  1  0
 16 17  1  0
 16 26  1  0
 17 18  2  0
 17 19  1  0
 19 20  1  0
 20 21  1  0
 21 19  1  0
 22 23  2  0
 23 24  1  0
 24 13  1  0
 24 25  2  0
 25 10  1  0
M  END
> <CMPD_CHEMBLID>
CHEMBL3685096

> <STANDARD_TYPE>
Ki

> <RELATION>
=

> <STANDARD_VALUE>
0.03

> <STANDARD_UNITS>
nM

> <Molecular_Weight>
332.3957

$$$$

  SciTegic11272012012D

 31 34  0  0  0  0            999 V2000
    2.1455    0.2461    0.0000 C   0  0
    2.1445   -0.4139    0.0000 C   0  0
    2.8583   -0.8275    0.0000 C   0  0
    2.8570   -1.6525    0.0000 C   0  0
    2.1419   -2.0639    0.0000 N   0  0
    1.4281   -1.6502    0.0000 C   0  0
    1.4293   -0.8252    0.0000 C   0  0
    0.7144   -0.4125    0.0000 C   0  0
    0.7144    0.4125    0.0000 C   0  0
    0.0000    0.8250    0.0000 C   0  0
   -0.7144    0.4125    0.0000 C   0  0
   -1.4290    0.8250    0.0000 C   0  0
   -2.1434    0.4125    0.0000 C   0  0
   -2.8591    0.8237    0.0000 N   0  0
   -3.5734    0.4100    0.0000 C   0  0
   -3.5722   -0.2500    0.0000 O   0  0
   -4.2891    0.8213    0.0000 C   0  0
   -5.0706    0.7961    0.0000 C   0  0
   -4.6581    1.5106    0.0000 C   0  0
   -2.1434   -0.4125    0.0000 N   0  0
   -1.4290   -0.8250    0.0000 C   0  0
   -0.7144   -0.4125    0.0000 C   0  0
    0.0000   -0.8250    0.0000 C   0  0
    3.5703   -2.0678    0.0000 C   0  0
    4.2858   -1.6560    0.0000 O   0  0
    3.5679   -2.8933    0.0000 C   0  0
    4.1383   -3.2254    0.0000 F   0  0
    3.5655   -3.5533    0.0000 F   0  0
    2.9952   -3.2214    0.0000 F   0  0
    4.2868   -1.1060    0.0000 H   0  0
   -2.8601    1.3737    0.0000 H   0  0
  1  2  1  0
  2  3  2  0
  3  4  1  0
  4  5  2  0
  4 24  1  0
  5  6  1  0
  6  7  2  0
  7  2  1  0
  7  8  1  0
  8  9  2  0
  9 10  1  0
 10 11  2  0
 11 12  1  0
 12 13  2  0
 13 14  1  0
 13 20  1  0
 14 15  1  0
 14 31  1  0
 15 16  2  0
 15 17  1  0
 17 18  1  0
 18 19  1  0
 19 17  1  0
 20 21  2  0
 21 22  1  0
 22 11  1  0
 22 23  2  0
 23  8  1  0
 24 25  1  0
 24 26  1  0
 25 30  1  0
 26 27  1  0
 26 28  1  0
 26 29  1  0
M  END
> <CMPD_CHEMBLID>
CHEMBL3689596

> <STANDARD_TYPE>
Ki

> <RELATION>
=

> <STANDARD_VALUE>
0.03

> <STANDARD_UNITS>
nM

> <Molecular_Weight>
401.38173

$$$$

  SciTegic11272012012D

 26 29  0  0  0  0            999 V2000
    2.1456    0.2461    0.0000 C   0  0
    2.1445   -0.4139    0.0000 C   0  0
    2.8583   -0.8275    0.0000 C   0  0
    3.5747   -0.4174    0.0000 O   0  0
    2.8570   -1.6525    0.0000 C   0  0
    2.1419   -2.0639    0.0000 C   0  0
    1.4281   -1.6502    0.0000 C   0  0
    1.4293   -0.8252    0.0000 C   0  0
    0.7145   -0.4125    0.0000 C   0  0
    0.7145    0.4125    0.0000 C   0  0
    0.0000    0.8250    0.0000 C   0  0
   -0.7145    0.4125    0.0000 C   0  0
   -1.4290    0.8250    0.0000 C   0  0
   -2.1434    0.4125    0.0000 C   0  0
   -2.8592    0.8237    0.0000 N   0  0
   -3.5735    0.4100    0.0000 C   0  0
   -3.5723   -0.2500    0.0000 O   0  0
   -4.2892    0.8213    0.0000 C   0  0
   -5.0706    0.7961    0.0000 C   0  0
   -4.6581    1.5106    0.0000 C   0  0
   -2.1434   -0.4125    0.0000 N   0  0
   -1.4290   -0.8250    0.0000 C   0  0
   -0.7145   -0.4125    0.0000 C   0  0
    0.0000   -0.8250    0.0000 C   0  0
   -2.8601    1.3738    0.0000 H   0  0
    4.0502   -0.6938    0.0000 H   0  0
  1  2  1  0
  2  3  2  0
  3  4  1  0
  3  5  1  0
  4 26  1  0
  5  6  2  0
  6  7  1  0
  7  8  2  0
  8  2  1  0
  8  9  1  0
  9 10  2  0
 10 11  1  0
 11 12  2  0
 12 13  1  0
 13 14  2  0
 14 15  1  0
 14 21  1  0
 15 16  1  0
 15 25  1  0
 16 17  2  0
 16 18  1  0
 18 19  1  0
 19 20  1  0
 20 18  1  0
 21 22  2  0
 22 23  1  0
 23 12  1  0
 23 24  2  0
 24  9  1  0
M  END
> <CMPD_CHEMBLID>
CHEMBL3685089

> <STANDARD_TYPE>
Ki

> <RELATION>
=

> <STANDARD_VALUE>
0.03

> <STANDARD_UNITS>
nM

> <Molecular_Weight>
318.36912

$$$$

  SciTegic11272012012D

 24 27  0  0  0  0            999 V2000
    2.1456    0.2461    0.0000 C   0  0
    2.1446   -0.4139    0.0000 C   0  0
    2.8584   -0.8275    0.0000 C   0  0
    2.8570   -1.6525    0.0000 C   0  0
    2.1419   -2.0639    0.0000 N   0  0
    1.4281   -1.6503    0.0000 C   0  0
    1.4293   -0.8252    0.0000 C   0  0
    0.7145   -0.4125    0.0000 C   0  0
    0.7145    0.4125    0.0000 C   0  0
    0.0000    0.8250    0.0000 C   0  0
   -0.7145    0.4125    0.0000 C   0  0
   -1.4290    0.8250    0.0000 C   0  0
   -2.1435    0.4125    0.0000 C   0  0
   -2.8592    0.8238    0.0000 N   0  0
   -3.5735    0.4100    0.0000 C   0  0
   -3.5723   -0.2500    0.0000 O   0  0
   -4.2892    0.8213    0.0000 C   0  0
   -5.0707    0.7961    0.0000 C   0  0
   -4.6582    1.5106    0.0000 C   0  0
   -2.1435   -0.4125    0.0000 N   0  0
   -1.4290   -0.8250    0.0000 C   0  0
   -0.7145   -0.4125    0.0000 C   0  0
    0.0000   -0.8250    0.0000 C   0  0
   -2.8602    1.3738    0.0000 H   0  0
  1  2  1  0
  2  3  2  0
  3  4  1  0
  4  5  2  0
  5  6  1  0
  6  7  2  0
  7  2  1  0
  7  8  1  0
  8  9  2  0
  9 10  1  0
 10 11  2  0
 11 12  1  0
 12 13  2  0
 13 14  1  0
 13 20  1  0
 14 15  1  0
 14 24  1  0
 15 16  2  0
 15 17  1  0
 17 18  1  0
 18 19  1  0
 19 17  1  0
 20 21  2  0
 21 22  1  0
 22 11  1  0
 22 23  2  0
 23  8  1  0
M  END
> <CMPD_CHEMBLID>
CHEMBL3685020

> <STANDARD_TYPE>
Ki

> <RELATION>
=

> <STANDARD_VALUE>
0.03

> <STANDARD_UNITS>
nM

> <Molecular_Weight>
303.35778

$$$$

  SciTegic11272012012D

 27 30  0  0  0  0            999 V2000
    2.1456    0.2461    0.0000 C   0  0
    2.1445   -0.4139    0.0000 C   0  0
    2.8583   -0.8275    0.0000 C   0  0
    2.8570   -1.6525    0.0000 C   0  0
    3.4281   -1.9834    0.0000 F   0  0
    2.1419   -2.0639    0.0000 C   0  0
    2.1389   -2.8894    0.0000 O   0  0
    1.4281   -1.6502    0.0000 C   0  0
    1.4293   -0.8252    0.0000 C   0  0
    0.7145   -0.4125    0.0000 C   0  0
    0.7145    0.4125    0.0000 C   0  0
    0.0000    0.8250    0.0000 C   0  0
   -0.7145    0.4125    0.0000 C   0  0
   -1.4290    0.8250    0.0000 C   0  0
   -2.1434    0.4125    0.0000 C   0  0
   -2.8592    0.8237    0.0000 N   0  0
   -3.5735    0.4100    0.0000 C   0  0
   -3.5723   -0.2500    0.0000 O   0  0
   -4.2892    0.8213    0.0000 C   0  0
   -5.0706    0.7961    0.0000 C   0  0
   -4.6581    1.5106    0.0000 C   0  0
   -2.1434   -0.4125    0.0000 N   0  0
   -1.4290   -0.8250    0.0000 C   0  0
   -0.7145   -0.4125    0.0000 C   0  0
    0.0000   -0.8250    0.0000 C   0  0
   -2.8601    1.3738    0.0000 H   0  0
    1.6617   -3.1629    0.0000 H   0  0
  1  2  1  0
  2  3  2  0
  3  4  1  0
  4  5  1  0
  4  6  2  0
  6  7  1  0
  6  8  1  0
  7 27  1  0
  8  9  2  0
  9  2  1  0
  9 10  1  0
 10 11  2  0
 11 12  1  0
 12 13  2  0
 13 14  1  0
 14 15  2  0
 15 16  1  0
 15 22  1  0
 16 17  1  0
 16 26  1  0
 17 18  2  0
 17 19  1  0
 19 20  1  0
 20 21  1  0
 21 19  1  0
 22 23  2  0
 23 24  1  0
 24 13  1  0
 24 25  2  0
 25 10  1  0
M  END
> <CMPD_CHEMBLID>
CHEMBL3685095

> <STANDARD_TYPE>
Ki

> <RELATION>
=

> <STANDARD_VALUE>
0.03

> <STANDARD_UNITS>
nM

> <Molecular_Weight>
336.35958

$$$$

  SciTegic11272012012D

 28 32  0  0  0  0            999 V2000
    0.8560   -1.9794    0.0000 C   0  0
    1.4281   -1.6503    0.0000 C   0  0
    2.1419   -2.0639    0.0000 C   0  0
    2.8570   -1.6525    0.0000 C   0  0
    2.8584   -0.8275    0.0000 C   0  0
    3.4721   -0.2768    0.0000 N   0  0
    3.1377    0.4774    0.0000 N   0  0
    2.3171    0.3924    0.0000 C   0  0
    2.1446   -0.4139    0.0000 C   0  0
    1.4293   -0.8252    0.0000 C   0  0
    0.7145   -0.4125    0.0000 C   0  0
    0.7145    0.4125    0.0000 C   0  0
    0.0000    0.8250    0.0000 C   0  0
   -0.7145    0.4125    0.0000 C   0  0
   -1.4290    0.8250    0.0000 C   0  0
   -2.1435    0.4125    0.0000 C   0  0
   -2.8592    0.8238    0.0000 N   0  0
   -3.5735    0.4100    0.0000 C   0  0
   -3.5723   -0.2500    0.0000 O   0  0
   -4.2892    0.8213    0.0000 C   0  0
   -5.0707    0.7961    0.0000 C   0  0
   -4.6582    1.5106    0.0000 C   0  0
   -2.1435   -0.4125    0.0000 N   0  0
   -1.4290   -0.8250    0.0000 C   0  0
   -0.7145   -0.4125    0.0000 C   0  0
    0.0000   -0.8250    0.0000 C   0  0
   -2.8602    1.3738    0.0000 H   0  0
    4.0099   -0.3921    0.0000 H   0  0
  1  2  1  0
  2  3  2  0
  3  4  1  0
  4  5  2  0
  5  6  1  0
  6  7  1  0
  6 28  1  0
  7  8  2  0
  8  9  1  0
  9  5  1  0
  9 10  2  0
 10  2  1  0
 10 11  1  0
 11 12  2  0
 12 13  1  0
 13 14  2  0
 14 15  1  0
 15 16  2  0
 16 17  1  0
 16 23  1  0
 17 18  1  0
 17 27  1  0
 18 19  2  0
 18 20  1  0
 20 21  1  0
 21 22  1  0
 22 20  1  0
 23 24  2  0
 24 25  1  0
 25 14  1  0
 25 26  2  0
 26 11  1  0
M  END
> <CMPD_CHEMBLID>
CHEMBL3689574

> <STANDARD_TYPE>
Ki

> <RELATION>
=

> <STANDARD_VALUE>
0.03

> <STANDARD_UNITS>
nM

> <Molecular_Weight>
342.39382

$$$$

  SciTegic11272012012D

 26 29  0  0  0  0            999 V2000
    2.1456    0.2461    0.0000 C   0  0
    2.1446   -0.4139    0.0000 C   0  0
    2.8584   -0.8275    0.0000 C   0  0
    3.5747   -0.4174    0.0000 O   0  0
    2.8570   -1.6525    0.0000 C   0  0
    2.1419   -2.0639    0.0000 N   0  0
    1.4281   -1.6503    0.0000 C   0  0
    1.4293   -0.8252    0.0000 C   0  0
    0.7145   -0.4125    0.0000 C   0  0
    0.7145    0.4125    0.0000 C   0  0
    0.0000    0.8250    0.0000 C   0  0
   -0.7145    0.4125    0.0000 C   0  0
   -1.4290    0.8250    0.0000 C   0  0
   -2.1435    0.4125    0.0000 C   0  0
   -2.8592    0.8238    0.0000 N   0  0
   -3.5735    0.4100    0.0000 C   0  0
   -3.5723   -0.2500    0.0000 O   0  0
   -4.2892    0.8213    0.0000 C   0  0
   -5.0707    0.7961    0.0000 C   0  0
   -4.6582    1.5106    0.0000 C   0  0
   -2.1435   -0.4125    0.0000 N   0  0
   -1.4290   -0.8250    0.0000 C   0  0
   -0.7145   -0.4125    0.0000 C   0  0
    0.0000   -0.8250    0.0000 C   0  0
   -2.8602    1.3738    0.0000 H   0  0
    4.0502   -0.6938    0.0000 H   0  0
  1  2  1  0
  2  3  2  0
  3  4  1  0
  3  5  1  0
  4 26  1  0
  5  6  2  0
  6  7  1  0
  7  8  2  0
  8  2  1  0
  8  9  1  0
  9 10  2  0
 10 11  1  0
 11 12  2  0
 12 13  1  0
 13 14  2  0
 14 15  1  0
 14 21  1  0
 15 16  1  0
 15 25  1  0
 16 17  2  0
 16 18  1  0
 18 19  1  0
 19 20  1  0
 20 18  1  0
 21 22  2  0
 22 23  1  0
 23 12  1  0
 23 24  2  0
 24  9  1  0
M  END
> <CMPD_CHEMBLID>
CHEMBL3685179

> <STANDARD_TYPE>
Ki

> <RELATION>
=

> <STANDARD_VALUE>
0.04

> <STANDARD_UNITS>
nM

> <Molecular_Weight>
319.35718

$$$$

  SciTegic11272012012D

 27 31  0  0  0  0            999 V2000
    0.8551   -1.9812    0.0000 O   0  0
    1.4273   -1.6521    0.0000 C   0  0
    1.4285   -0.8267    0.0000 N   0  0
    0.7144   -0.4125    0.0000 C   0  0
    0.7144    0.4125    0.0000 C   0  0
    0.0000    0.8250    0.0000 C   0  0
    0.0000    1.6500    0.0000 C   0  0
   -0.7145    2.0625    0.0000 C   0  0
   -1.4290    1.6500    0.0000 C   0  0
   -1.4290    0.8250    0.0000 C   0  0
   -0.7144    0.4125    0.0000 C   0  0
   -0.7144   -0.4125    0.0000 C   0  0
    0.0000   -0.8250    0.0000 N   0  0
   -2.1438    2.0627    0.0000 C   0  0
   -2.8576    1.6491    0.0000 C   0  0
   -3.5728    2.0605    0.0000 C   0  0
   -3.5741    2.8855    0.0000 C   0  0
   -2.8603    3.2991    0.0000 C   0  0
   -2.6903    4.1059    0.0000 N   0  0
   -1.8699    4.1935    0.0000 N   0  0
   -1.5332    3.4403    0.0000 C   0  0
   -2.1452    2.8877    0.0000 C   0  0
    2.1413   -2.0663    0.0000 C   0  0
    2.5103   -2.7557    0.0000 C   0  0
    2.9228   -2.0412    0.0000 C   0  0
   -3.0590    4.5140    0.0000 H   0  0
    1.9053   -0.5525    0.0000 H   0  0
  1  2  2  0
  2  3  1  0
  2 23  1  0
  3  4  1  0
  3 27  1  0
  4  5  2  0
  5  6  1  0
  6  7  2  0
  7  8  1  0
  8  9  2  0
  9 10  1  0
  9 14  1  0
 10 11  2  0
 11  6  1  0
 11 12  1  0
 12 13  2  0
 13  4  1  0
 14 15  2  0
 15 16  1  0
 16 17  2  0
 17 18  1  0
 18 19  1  0
 19 20  1  0
 19 26  1  0
 20 21  2  0
 21 22  1  0
 22 14  1  0
 22 18  2  0
 23 24  1  0
 24 25  1  0
 25 23  1  0
M  END
> <CMPD_CHEMBLID>
CHEMBL3685134

> <STANDARD_TYPE>
Ki

> <RELATION>
=

> <STANDARD_VALUE>
0.04

> <STANDARD_UNITS>
nM

> <Molecular_Weight>
328.36724

$$$$

  SciTegic11272012012D

 26 29  0  0  0  0            999 V2000
    2.1389   -2.8894    0.0000 O   0  0
    2.1419   -2.0639    0.0000 C   0  0
    2.8570   -1.6525    0.0000 C   0  0
    2.8583   -0.8275    0.0000 C   0  0
    2.1445   -0.4139    0.0000 C   0  0
    2.1456    0.2461    0.0000 Cl  0  0
    1.4293   -0.8252    0.0000 C   0  0
    1.4281   -1.6502    0.0000 C   0  0
    0.7145   -0.4125    0.0000 C   0  0
    0.7145    0.4125    0.0000 C   0  0
    0.0000    0.8250    0.0000 C   0  0
   -0.7145    0.4125    0.0000 C   0  0
   -1.4290    0.8250    0.0000 C   0  0
   -2.1434    0.4125    0.0000 C   0  0
   -2.8592    0.8237    0.0000 N   0  0
   -3.5735    0.4100    0.0000 C   0  0
   -3.5723   -0.2500    0.0000 O   0  0
   -4.2892    0.8213    0.0000 C   0  0
   -5.0706    0.7961    0.0000 C   0  0
   -4.6581    1.5106    0.0000 C   0  0
   -2.1434   -0.4125    0.0000 N   0  0
   -1.4290   -0.8250    0.0000 C   0  0
   -0.7145   -0.4125    0.0000 C   0  0
    0.0000   -0.8250    0.0000 C   0  0
   -2.8601    1.3738    0.0000 H   0  0
    1.6617   -3.1629    0.0000 H   0  0
  1  2  1  0
  1 26  1  0
  2  3  2  0
  3  4  1  0
  4  5  2  0
  5  6  1  0
  5  7  1  0
  7  8  2  0
  7  9  1  0
  8  2  1  0
  9 10  2  0
 10 11  1  0
 11 12  2  0
 12 13  1  0
 13 14  2  0
 14 15  1  0
 14 21  1  0
 15 16  1  0
 15 25  1  0
 16 17  2  0
 16 18  1  0
 18 19  1  0
 19 20  1  0
 20 18  1  0
 21 22  2  0
 22 23  1  0
 23 12  1  0
 23 24  2  0
 24  9  1  0
M  END
> <CMPD_CHEMBLID>
CHEMBL3685023

> <STANDARD_TYPE>
Ki

> <RELATION>
=

> <STANDARD_VALUE>
0.04

> <STANDARD_UNITS>
nM

> <Molecular_Weight>
338.7876

$$$$

  SciTegic11272012012D

 28 32  0  0  0  0            999 V2000
    0.8560   -1.9794    0.0000 C   0  0
    1.4281   -1.6503    0.0000 C   0  0
    2.1419   -2.0639    0.0000 N   0  0
    2.8570   -1.6525    0.0000 C   0  0
    2.8584   -0.8275    0.0000 C   0  0
    3.4721   -0.2768    0.0000 N   0  0
    3.1377    0.4774    0.0000 N   0  0
    2.3171    0.3924    0.0000 C   0  0
    2.1446   -0.4139    0.0000 C   0  0
    1.4293   -0.8252    0.0000 C   0  0
    0.7145   -0.4125    0.0000 C   0  0
    0.7145    0.4125    0.0000 C   0  0
    0.0000    0.8250    0.0000 C   0  0
   -0.7145    0.4125    0.0000 C   0  0
   -1.4290    0.8250    0.0000 C   0  0
   -2.1435    0.4125    0.0000 C   0  0
   -2.8592    0.8238    0.0000 N   0  0
   -3.5735    0.4100    0.0000 C   0  0
   -3.5723   -0.2500    0.0000 O   0  0
   -4.2892    0.8213    0.0000 C   0  0
   -5.0707    0.7961    0.0000 C   0  0
   -4.6582    1.5106    0.0000 C   0  0
   -2.1435   -0.4125    0.0000 N   0  0
   -1.4290   -0.8250    0.0000 C   0  0
   -0.7145   -0.4125    0.0000 C   0  0
    0.0000   -0.8250    0.0000 C   0  0
   -2.8602    1.3738    0.0000 H   0  0
    4.0099   -0.3921    0.0000 H   0  0
  1  2  1  0
  2  3  2  0
  3  4  1  0
  4  5  2  0
  5  6  1  0
  6  7  1  0
  6 28  1  0
  7  8  2  0
  8  9  1  0
  9  5  1  0
  9 10  2  0
 10  2  1  0
 10 11  1  0
 11 12  2  0
 12 13  1  0
 13 14  2  0
 14 15  1  0
 15 16  2  0
 16 17  1  0
 16 23  1  0
 17 18  1  0
 17 27  1  0
 18 19  2  0
 18 20  1  0
 20 21  1  0
 21 22  1  0
 22 20  1  0
 23 24  2  0
 24 25  1  0
 25 14  1  0
 25 26  2  0
 26 11  1  0
M  END
> <CMPD_CHEMBLID>
CHEMBL3689575

> <STANDARD_TYPE>
Ki

> <RELATION>
=

> <STANDARD_VALUE>
0.04

> <STANDARD_UNITS>
nM

> <Molecular_Weight>
343.38188

$$$$

  SciTegic11272012012D

 28 31  0  0  0  0            999 V2000
    4.1431   -1.7398    0.0000 C   0  0
    3.5704   -2.0679    0.0000 C   0  0
    3.5679   -2.8933    0.0000 O   0  0
    2.8570   -1.6525    0.0000 C   0  0
    2.8584   -0.8275    0.0000 C   0  0
    2.1446   -0.4139    0.0000 C   0  0
    2.1456    0.2461    0.0000 C   0  0
    1.4293   -0.8252    0.0000 C   0  0
    1.4281   -1.6503    0.0000 C   0  0
    2.1419   -2.0639    0.0000 N   0  0
    0.7145   -0.4125    0.0000 C   0  0
    0.7145    0.4125    0.0000 C   0  0
    0.0000    0.8250    0.0000 C   0  0
   -0.7145    0.4125    0.0000 C   0  0
   -1.4290    0.8250    0.0000 C   0  0
   -2.1435    0.4125    0.0000 C   0  0
   -2.8592    0.8238    0.0000 N   0  0
   -3.5735    0.4100    0.0000 C   0  0
   -3.5723   -0.2500    0.0000 O   0  0
   -4.2892    0.8213    0.0000 C   0  0
   -5.0707    0.7961    0.0000 C   0  0
   -4.6582    1.5106    0.0000 C   0  0
   -2.1435   -0.4125    0.0000 N   0  0
   -1.4290   -0.8250    0.0000 C   0  0
   -0.7145   -0.4125    0.0000 C   0  0
    0.0000   -0.8250    0.0000 C   0  0
   -2.8602    1.3738    0.0000 H   0  0
    4.0432   -3.1701    0.0000 H   0  0
  1  2  1  0
  2  3  1  0
  2  4  1  0
  3 28  1  0
  4  5  2  0
  5  6  1  0
  6  7  1  0
  6  8  2  0
  8  9  1  0
  8 11  1  0
  9 10  2  0
 10  4  1  0
 11 12  2  0
 12 13  1  0
 13 14  2  0
 14 15  1  0
 15 16  2  0
 16 17  1  0
 16 23  1  0
 17 18  1  0
 17 27  1  0
 18 19  2  0
 18 20  1  0
 20 21  1  0
 21 22  1  0
 22 20  1  0
 23 24  2  0
 24 25  1  0
 25 14  1  0
 25 26  2  0
 26 11  1  0
M  END
> <CMPD_CHEMBLID>
CHEMBL3689567

> <STANDARD_TYPE>
Ki

> <RELATION>
=

> <STANDARD_VALUE>
0.05

> <STANDARD_UNITS>
nM

> <Molecular_Weight>
347.41034

$$$$

  SciTegic11272012012D

 26 29  0  0  0  0            999 V2000
    3.4280   -1.9834    0.0000 F   0  0
    2.8570   -1.6525    0.0000 C   0  0
    2.1419   -2.0639    0.0000 C   0  0
    1.4281   -1.6502    0.0000 C   0  0
    1.4293   -0.8252    0.0000 C   0  0
    0.7144   -0.4125    0.0000 C   0  0
    0.7144    0.4125    0.0000 C   0  0
    0.0000    0.8250    0.0000 C   0  0
   -0.7144    0.4125    0.0000 C   0  0
   -1.4290    0.8250    0.0000 C   0  0
   -2.1434    0.4125    0.0000 C   0  0
   -2.8591    0.8237    0.0000 N   0  0
   -3.5734    0.4100    0.0000 C   0  0
   -3.5722   -0.2500    0.0000 O   0  0
   -4.2891    0.8213    0.0000 C   0  0
   -5.0706    0.7961    0.0000 C   0  0
   -4.6581    1.5106    0.0000 C   0  0
   -2.1434   -0.4125    0.0000 N   0  0
   -1.4290   -0.8250    0.0000 C   0  0
   -0.7144   -0.4125    0.0000 C   0  0
    0.0000   -0.8250    0.0000 C   0  0
    2.1445   -0.4139    0.0000 C   0  0
    2.8583   -0.8275    0.0000 C   0  0
    2.1458    0.4116    0.0000 C   0  0
    2.1469    1.0716    0.0000 N   0  0
   -2.8601    1.3737    0.0000 H   0  0
  1  2  1  0
  2  3  2  0
  3  4  1  0
  4  5  2  0
  5  6  1  0
  5 22  1  0
  6  7  2  0
  7  8  1  0
  8  9  2  0
  9 10  1  0
 10 11  2  0
 11 12  1  0
 11 18  1  0
 12 13  1  0
 12 26  1  0
 13 14  2  0
 13 15  1  0
 15 16  1  0
 16 17  1  0
 17 15  1  0
 18 19  2  0
 19 20  1  0
 20  9  1  0
 20 21  2  0
 21  6  1  0
 22 23  2  0
 22 24  1  0
 23  2  1  0
 24 25  3  0
M  END
> <CMPD_CHEMBLID>
CHEMBL3685068

> <STANDARD_TYPE>
Ki

> <RELATION>
=

> <STANDARD_VALUE>
0.06

> <STANDARD_UNITS>
nM

> <Molecular_Weight>
331.34306

$$$$

  SciTegic11272012012D

 36 40  0  0  0  0            999 V2000
    1.2861   -0.7425    0.0000 C   0  0
    0.7144   -0.4125    0.0000 C   0  0
    0.7144    0.4125    0.0000 C   0  0
    0.0000    0.8250    0.0000 C   0  0
   -0.7144    0.4125    0.0000 C   0  0
   -0.7144   -0.4125    0.0000 C   0  0
   -1.4290   -0.8250    0.0000 N   0  0
   -1.4290   -1.6500    0.0000 N   0  0
   -0.7144   -2.0625    0.0000 C   0  0
   -0.7127   -2.8879    0.0000 N   0  0
    0.0027   -3.2997    0.0000 C   0  0
    0.0056   -4.1247    0.0000 C   0  0
    0.7215   -4.5347    0.0000 C   0  0
    1.4345   -4.1197    0.0000 C   0  0
    2.1517   -4.5285    0.0000 C   0  0
    2.8645   -4.1123    0.0000 C   0  0
    3.5817   -4.5211    0.0000 C   0  0
    4.2945   -4.1049    0.0000 N   0  0
    5.0401   -4.4412    0.0000 C   0  0
    5.5878   -3.8243    0.0000 C   0  0
    5.1704   -3.1127    0.0000 C   0  0
    4.3646   -3.2899    0.0000 C   0  0
    1.4317   -3.2947    0.0000 C   0  0
    0.7158   -2.8847    0.0000 C   0  0
    0.0000   -1.6500    0.0000 N   0  0
    0.0000   -0.8250    0.0000 C   0  0
    0.0000    1.6504    0.0000 C   0  0
   -0.7151    2.0618    0.0000 C   0  0
   -0.7164    2.8868    0.0000 C   0  0
   -1.4311    3.2999    0.0000 O   0  0
   -0.0026    3.3005    0.0000 C   0  0
    0.7125    2.8891    0.0000 C   0  0
    0.7138    2.0641    0.0000 C   0  0
    1.2859    1.7350    0.0000 Cl  0  0
   -1.4312    3.8499    0.0000 H   0  0
   -1.1886   -3.1638    0.0000 H   0  0
  1  2  1  0
  2  3  2  0
  3  4  1  0
  4  5  2  0
  4 27  1  0
  5  6  1  0
  6  7  2  0
  7  8  1  0
  8  9  2  0
  9 10  1  0
  9 25  1  0
 10 11  1  0
 10 36  1  0
 11 12  2  0
 12 13  1  0
 13 14  2  0
 14 15  1  0
 14 23  1  0
 15 16  1  0
 16 17  1  0
 17 18  1  0
 18 19  1  0
 19 20  1  0
 20 21  1  0
 21 22  1  0
 22 18  1  0
 23 24  2  0
 24 11  1  0
 25 26  2  0
 26  2  1  0
 26  6  1  0
 27 28  2  0
 28 29  1  0
 29 30  1  0
 29 31  2  0
 30 35  1  0
 31 32  1  0
 32 33  2  0
 33 27  1  0
 33 34  1  0
M  END
> <CMPD_CHEMBLID>
CHEMBL250213

> <STANDARD_TYPE>
Ki

> <RELATION>
=

> <STANDARD_VALUE>
0.062

> <STANDARD_UNITS>
nM

> <Molecular_Weight>
473.99712

$$$$

  SciTegic11272012012D

 27 30  0  0  0  0            999 V2000
    0.8560   -1.9794    0.0000 C   0  0
    1.4281   -1.6502    0.0000 C   0  0
    2.1419   -2.0639    0.0000 C   0  0
    2.8570   -1.6525    0.0000 C   0  0
    2.8583   -0.8275    0.0000 N   0  0
    2.1445   -0.4139    0.0000 C   0  0
    2.1475    0.4116    0.0000 C   0  0
    2.8636    0.8221    0.0000 O   0  0
    1.4293   -0.8252    0.0000 C   0  0
    0.7145   -0.4125    0.0000 C   0  0
    0.7145    0.4125    0.0000 C   0  0
    0.0000    0.8250    0.0000 C   0  0
   -0.7145    0.4125    0.0000 C   0  0
   -1.4290    0.8250    0.0000 C   0  0
   -2.1434    0.4125    0.0000 C   0  0
   -2.8591    0.8237    0.0000 N   0  0
   -3.5734    0.4100    0.0000 C   0  0
   -3.5723   -0.2500    0.0000 O   0  0
   -4.2891    0.8213    0.0000 C   0  0
   -5.0706    0.7961    0.0000 C   0  0
   -4.6581    1.5106    0.0000 C   0  0
   -2.1434   -0.4125    0.0000 N   0  0
   -1.4290   -0.8250    0.0000 C   0  0
   -0.7145   -0.4125    0.0000 C   0  0
    0.0000   -0.8250    0.0000 C   0  0
   -2.8601    1.3737    0.0000 H   0  0
    2.8657    1.3721    0.0000 H   0  0
  1  2  1  0
  2  3  2  0
  3  4  1  0
  4  5  2  0
  5  6  1  0
  6  7  1  0
  6  9  2  0
  7  8  1  0
  8 27  1  0
  9  2  1  0
  9 10  1  0
 10 11  2  0
 11 12  1  0
 12 13  2  0
 13 14  1  0
 14 15  2  0
 15 16  1  0
 15 22  1  0
 16 17  1  0
 16 26  1  0
 17 18  2  0
 17 19  1  0
 19 20  1  0
 20 21  1  0
 21 19  1  0
 22 23  2  0
 23 24  1  0
 24 13  1  0
 24 25  2  0
 25 10  1  0
M  END
> <CMPD_CHEMBLID>
CHEMBL3685181

> <STANDARD_TYPE>
Ki

> <RELATION>
=

> <STANDARD_VALUE>
0.07

> <STANDARD_UNITS>
nM

> <Molecular_Weight>
333.38376

$$$$

  SciTegic11272012012D

 24 27  0  0  0  0            999 V2000
    2.1456    0.2461    0.0000 Cl  0  0
    2.1445   -0.4139    0.0000 C   0  0
    2.8583   -0.8275    0.0000 C   0  0
    2.8570   -1.6525    0.0000 C   0  0
    2.1419   -2.0639    0.0000 N   0  0
    1.4281   -1.6502    0.0000 C   0  0
    1.4293   -0.8252    0.0000 C   0  0
    0.7145   -0.4125    0.0000 C   0  0
    0.7145    0.4125    0.0000 C   0  0
    0.0000    0.8250    0.0000 C   0  0
   -0.7145    0.4125    0.0000 C   0  0
   -1.4290    0.8250    0.0000 C   0  0
   -2.1434    0.4125    0.0000 C   0  0
   -2.8592    0.8237    0.0000 N   0  0
   -3.5735    0.4100    0.0000 C   0  0
   -3.5723   -0.2500    0.0000 O   0  0
   -4.2892    0.8213    0.0000 C   0  0
   -5.0706    0.7961    0.0000 C   0  0
   -4.6581    1.5106    0.0000 C   0  0
   -2.1434   -0.4125    0.0000 N   0  0
   -1.4290   -0.8250    0.0000 C   0  0
   -0.7145   -0.4125    0.0000 C   0  0
    0.0000   -0.8250    0.0000 C   0  0
   -2.8601    1.3738    0.0000 H   0  0
  1  2  1  0
  2  3  2  0
  3  4  1  0
  4  5  2  0
  5  6  1  0
  6  7  2  0
  7  2  1  0
  7  8  1  0
  8  9  2  0
  9 10  1  0
 10 11  2  0
 11 12  1  0
 12 13  2  0
 13 14  1  0
 13 20  1  0
 14 15  1  0
 14 24  1  0
 15 16  2  0
 15 17  1  0
 17 18  1  0
 18 19  1  0
 19 17  1  0
 20 21  2  0
 21 22  1  0
 22 11  1  0
 22 23  2  0
 23  8  1  0
M  END
> <CMPD_CHEMBLID>
CHEMBL3685147

> <STANDARD_TYPE>
Ki

> <RELATION>
=

> <STANDARD_VALUE>
0.07

> <STANDARD_UNITS>
nM

> <Molecular_Weight>
323.77626

$$$$

  SciTegic11272012012D

 27 30  0  0  0  0            999 V2000
    3.4280   -1.9834    0.0000 F   0  0
    2.8570   -1.6525    0.0000 C   0  0
    2.8583   -0.8275    0.0000 C   0  0
    2.1445   -0.4139    0.0000 C   0  0
    2.1458    0.4116    0.0000 C   0  0
    2.1469    1.0716    0.0000 N   0  0
    1.4293   -0.8252    0.0000 C   0  0
    1.4281   -1.6502    0.0000 C   0  0
    2.1419   -2.0639    0.0000 C   0  0
    2.1408   -2.7239    0.0000 F   0  0
    0.7144   -0.4125    0.0000 C   0  0
    0.7144    0.4125    0.0000 C   0  0
    0.0000    0.8250    0.0000 C   0  0
   -0.7144    0.4125    0.0000 C   0  0
   -1.4290    0.8250    0.0000 C   0  0
   -2.1434    0.4125    0.0000 C   0  0
   -2.8591    0.8237    0.0000 N   0  0
   -3.5734    0.4100    0.0000 C   0  0
   -3.5722   -0.2500    0.0000 O   0  0
   -4.2891    0.8213    0.0000 C   0  0
   -5.0706    0.7961    0.0000 C   0  0
   -4.6581    1.5106    0.0000 C   0  0
   -2.1434   -0.4125    0.0000 N   0  0
   -1.4290   -0.8250    0.0000 C   0  0
   -0.7144   -0.4125    0.0000 C   0  0
    0.0000   -0.8250    0.0000 C   0  0
   -2.8601    1.3737    0.0000 H   0  0
  1  2  1  0
  2  3  2  0
  3  4  1  0
  4  5  1  0
  4  7  2  0
  5  6  3  0
  7  8  1  0
  7 11  1  0
  8  9  2  0
  9  2  1  0
  9 10  1  0
 11 12  2  0
 12 13  1  0
 13 14  2  0
 14 15  1  0
 15 16  2  0
 16 17  1  0
 16 23  1  0
 17 18  1  0
 17 27  1  0
 18 19  2  0
 18 20  1  0
 20 21  1  0
 21 22  1  0
 22 20  1  0
 23 24  2  0
 24 25  1  0
 25 14  1  0
 25 26  2  0
 26 11  1  0
M  END
> <CMPD_CHEMBLID>
CHEMBL3685055

> <STANDARD_TYPE>
Ki

> <RELATION>
=

> <STANDARD_VALUE>
0.07

> <STANDARD_UNITS>
nM

> <Molecular_Weight>
349.33353

$$$$

  SciTegic11272012012D

 25 28  0  0  0  0            999 V2000
    0.8560   -1.9794    0.0000 C   0  0
    1.4281   -1.6502    0.0000 C   0  0
    2.1419   -2.0639    0.0000 C   0  0
    2.8570   -1.6525    0.0000 C   0  0
    2.8583   -0.8275    0.0000 C   0  0
    2.1445   -0.4139    0.0000 C   0  0
    2.1456    0.2461    0.0000 F   0  0
    1.4293   -0.8252    0.0000 C   0  0
    0.7145   -0.4125    0.0000 C   0  0
    0.7145    0.4125    0.0000 C   0  0
    0.0000    0.8250    0.0000 C   0  0
   -0.7145    0.4125    0.0000 C   0  0
   -1.4290    0.8250    0.0000 C   0  0
   -2.1434    0.4125    0.0000 C   0  0
   -2.8592    0.8237    0.0000 N   0  0
   -3.5735    0.4100    0.0000 C   0  0
   -3.5723   -0.2500    0.0000 O   0  0
   -4.2892    0.8213    0.0000 C   0  0
   -5.0706    0.7961    0.0000 C   0  0
   -4.6581    1.5106    0.0000 C   0  0
   -2.1434   -0.4125    0.0000 N   0  0
   -1.4290   -0.8250    0.0000 C   0  0
   -0.7145   -0.4125    0.0000 C   0  0
    0.0000   -0.8250    0.0000 C   0  0
   -2.8601    1.3738    0.0000 H   0  0
  1  2  1  0
  2  3  2  0
  3  4  1  0
  4  5  2  0
  5  6  1  0
  6  7  1  0
  6  8  2  0
  8  2  1  0
  8  9  1  0
  9 10  2  0
 10 11  1  0
 11 12  2  0
 12 13  1  0
 13 14  2  0
 14 15  1  0
 14 21  1  0
 15 16  1  0
 15 25  1  0
 16 17  2  0
 16 18  1  0
 18 19  1  0
 19 20  1  0
 20 18  1  0
 21 22  2  0
 22 23  1  0
 23 12  1  0
 23 24  2  0
 24  9  1  0
M  END
> <CMPD_CHEMBLID>
CHEMBL3689696

> <STANDARD_TYPE>
Ki

> <RELATION>
=

> <STANDARD_VALUE>
0.0709

> <STANDARD_UNITS>
nM

> <Molecular_Weight>
320.36018

$$$$

  SciTegic11272012012D

 27 31  0  0  0  0            999 V2000
    0.8551   -1.9812    0.0000 O   0  0
    1.4273   -1.6521    0.0000 C   0  0
    1.4285   -0.8267    0.0000 N   0  0
    0.7144   -0.4125    0.0000 C   0  0
    0.7144    0.4125    0.0000 C   0  0
    0.0000    0.8250    0.0000 C   0  0
    0.0000    1.6500    0.0000 C   0  0
   -0.7145    2.0625    0.0000 C   0  0
   -1.4290    1.6500    0.0000 C   0  0
   -1.4290    0.8250    0.0000 C   0  0
   -0.7144    0.4125    0.0000 C   0  0
   -0.7144   -0.4125    0.0000 C   0  0
    0.0000   -0.8250    0.0000 N   0  0
   -2.1438    2.0627    0.0000 C   0  0
   -2.8576    1.6491    0.0000 C   0  0
   -3.5728    2.0605    0.0000 C   0  0
   -3.5741    2.8855    0.0000 C   0  0
   -2.8603    3.2991    0.0000 C   0  0
   -2.6903    4.1059    0.0000 N   0  0
   -1.8699    4.1935    0.0000 N   0  0
   -1.5332    3.4403    0.0000 N   0  0
   -2.1452    2.8877    0.0000 C   0  0
    2.1413   -2.0663    0.0000 C   0  0
    2.5103   -2.7557    0.0000 C   0  0
    2.9228   -2.0412    0.0000 C   0  0
   -3.0590    4.5140    0.0000 H   0  0
    1.9053   -0.5525    0.0000 H   0  0
  1  2  2  0
  2  3  1  0
  2 23  1  0
  3  4  1  0
  3 27  1  0
  4  5  2  0
  5  6  1  0
  6  7  2  0
  7  8  1  0
  8  9  2  0
  9 10  1  0
  9 14  1  0
 10 11  2  0
 11  6  1  0
 11 12  1  0
 12 13  2  0
 13  4  1  0
 14 15  2  0
 15 16  1  0
 16 17  2  0
 17 18  1  0
 18 19  1  0
 19 20  1  0
 19 26  1  0
 20 21  2  0
 21 22  1  0
 22 14  1  0
 22 18  2  0
 23 24  1  0
 24 25  1  0
 25 23  1  0
M  END
> <CMPD_CHEMBLID>
CHEMBL3689719

> <STANDARD_TYPE>
Ki

> <RELATION>
=

> <STANDARD_VALUE>
0.0723

> <STANDARD_UNITS>
nM

> <Molecular_Weight>
329.3553

$$$$

  SciTegic11272012012D

 25 28  0  0  0  0            999 V2000
    1.0101   -2.0778    0.0000 C   0  0
    1.5039   -1.6399    0.0000 C   0  0
    2.3106   -1.8126    0.0000 C   0  0
    2.7243   -1.0988    0.0000 C   0  0
    2.1732   -0.4848    0.0000 C   0  0
    2.3076    0.1614    0.0000 O   0  0
    1.4293   -0.8252    0.0000 N   0  0
    0.7145   -0.4125    0.0000 C   0  0
    0.7145    0.4125    0.0000 C   0  0
    0.0000    0.8250    0.0000 C   0  0
   -0.7145    0.4125    0.0000 C   0  0
   -1.4290    0.8250    0.0000 C   0  0
   -2.1435    0.4125    0.0000 C   0  0
   -2.8592    0.8238    0.0000 N   0  0
   -3.5735    0.4100    0.0000 C   0  0
   -3.5723   -0.2500    0.0000 O   0  0
   -4.2892    0.8213    0.0000 C   0  0
   -4.6582    1.5106    0.0000 C   0  0
   -5.0707    0.7961    0.0000 C   0  0
   -5.6369    0.4571    0.0000 F   0  0
   -2.1435   -0.4125    0.0000 N   0  0
   -1.4290   -0.8250    0.0000 C   0  0
   -0.7145   -0.4125    0.0000 C   0  0
    0.0000   -0.8250    0.0000 C   0  0
   -2.8602    1.3738    0.0000 H   0  0
  1  2  1  0
  2  3  1  0
  3  4  1  0
  4  5  1  0
  5  6  2  0
  5  7  1  0
  7  2  1  0
  7  8  1  0
  8  9  2  0
  9 10  1  0
 10 11  2  0
 11 12  1  0
 12 13  2  0
 13 14  1  0
 13 21  1  0
 14 15  1  0
 14 25  1  0
 15 16  2  0
 15 17  1  0
 17 18  1  0
 18 19  1  0
 19 17  1  0
 19 20  1  0
 21 22  2  0
 22 23  1  0
 23 11  1  0
 23 24  2  0
 24  8  1  0
M  END
> <CMPD_CHEMBLID>
CHEMBL3689736

> <STANDARD_TYPE>
Ki

> <RELATION>
=

> <STANDARD_VALUE>
0.0799

> <STANDARD_UNITS>
nM

> <Molecular_Weight>
327.35282

$$$$

  SciTegic11272012012D

 26 29  0  0  0  0            999 V2000
    2.1455    0.2461    0.0000 C   0  0
    2.1445   -0.4139    0.0000 C   0  0
    2.8583   -0.8275    0.0000 C   0  0
    2.8570   -1.6525    0.0000 C   0  0
    2.1419   -2.0639    0.0000 C   0  0
    2.1408   -2.7239    0.0000 F   0  0
    1.4281   -1.6502    0.0000 C   0  0
    1.4293   -0.8252    0.0000 C   0  0
    0.7144   -0.4125    0.0000 C   0  0
    0.7144    0.4125    0.0000 C   0  0
    0.0000    0.8250    0.0000 C   0  0
    0.0000    1.6500    0.0000 C   0  0
   -0.7145    2.0625    0.0000 N   0  0
   -1.4290    1.6500    0.0000 C   0  0
   -2.1447    2.0612    0.0000 N   0  0
   -2.8590    1.6475    0.0000 C   0  0
   -2.8578    0.9875    0.0000 O   0  0
   -3.5747    2.0588    0.0000 C   0  0
   -4.3561    2.0337    0.0000 C   0  0
   -3.9436    2.7481    0.0000 C   0  0
   -1.4290    0.8250    0.0000 C   0  0
   -0.7144    0.4125    0.0000 C   0  0
   -0.7144   -0.4125    0.0000 C   0  0
   -1.2861   -0.7425    0.0000 C   0  0
    0.0000   -0.8250    0.0000 N   0  0
   -2.1457    2.6112    0.0000 H   0  0
  1  2  1  0
  2  3  2  0
  3  4  1  0
  4  5  2  0
  5  6  1  0
  5  7  1  0
  7  8  2  0
  8  2  1  0
  8  9  1  0
  9 10  2  0
 10 11  1  0
 11 12  2  0
 12 13  1  0
 13 14  2  0
 14 15  1  0
 14 21  1  0
 15 16  1  0
 15 26  1  0
 16 17  2  0
 16 18  1  0
 18 19  1  0
 19 20  1  0
 20 18  1  0
 21 22  2  0
 22 11  1  0
 22 23  1  0
 23 24  1  0
 23 25  2  0
 25  9  1  0
M  END
> <CMPD_CHEMBLID>
CHEMBL3689649

> <STANDARD_TYPE>
Ki

> <RELATION>
=

> <STANDARD_VALUE>
0.08

> <STANDARD_UNITS>
nM

> <Molecular_Weight>
335.37482

$$$$

  SciTegic11272012012D

 33 36  0  0  0  0            999 V2000
    2.1456    0.2461    0.0000 C   0  0
    2.1445   -0.4139    0.0000 C   0  0
    2.8583   -0.8275    0.0000 C   0  0
    3.4305   -0.4984    0.0000 Cl  0  0
    2.8570   -1.6525    0.0000 C   0  0
    2.1419   -2.0639    0.0000 N   0  0
    1.4281   -1.6502    0.0000 C   0  0
    1.4293   -0.8252    0.0000 C   0  0
    0.7145   -0.4125    0.0000 C   0  0
    0.7145    0.4125    0.0000 C   0  0
    0.0000    0.8250    0.0000 C   0  0
   -0.7145    0.4125    0.0000 C   0  0
   -1.4290    0.8250    0.0000 C   0  0
   -2.1434    0.4125    0.0000 C   0  0
   -2.8592    0.8237    0.0000 N   0  0
   -3.5735    0.4100    0.0000 C   0  0
   -3.5723   -0.2500    0.0000 O   0  0
   -4.2892    0.8213    0.0000 C   0  0
   -4.6581    1.5106    0.0000 C   0  0
   -5.0706    0.7961    0.0000 C   0  0
   -5.6369    0.4571    0.0000 F   0  0
   -2.1434   -0.4125    0.0000 N   0  0
   -1.4290   -0.8250    0.0000 C   0  0
   -0.7145   -0.4125    0.0000 C   0  0
    0.0000   -0.8250    0.0000 C   0  0
    3.5704   -2.0679    0.0000 C   0  0
    4.2858   -1.6560    0.0000 O   0  0
    3.5679   -2.8933    0.0000 C   0  0
    4.1383   -3.2254    0.0000 F   0  0
    3.5656   -3.5533    0.0000 F   0  0
    2.9952   -3.2214    0.0000 F   0  0
    4.2869   -1.1060    0.0000 H   0  0
   -2.8601    1.3738    0.0000 H   0  0
  1  2  1  0
  2  3  2  0
  3  4  1  0
  3  5  1  0
  5  6  2  0
  5 26  1  0
  6  7  1  0
  7  8  2  0
  8  2  1  0
  8  9  1  0
  9 10  2  0
 10 11  1  0
 11 12  2  0
 12 13  1  0
 13 14  2  0
 14 15  1  0
 14 22  1  0
 15 16  1  0
 15 33  1  0
 16 17  2  0
 16 18  1  0
 18 19  1  0
 19 20  1  0
 20 18  1  0
 20 21  1  0
 22 23  2  0
 23 24  1  0
 24 12  1  0
 24 25  2  0
 25  9  1  0
 26 27  1  0
 26 28  1  0
 27 32  1  0
 28 29  1  0
 28 30  1  0
 28 31  1  0
M  END
> <CMPD_CHEMBLID>
CHEMBL3689714

> <STANDARD_TYPE>
Ki

> <RELATION>
=

> <STANDARD_VALUE>
0.0841

> <STANDARD_UNITS>
nM

> <Molecular_Weight>
453.81725

$$$$

  SciTegic11272012012D

 25 28  0  0  0  0            999 V2000
    0.8560   -1.9794    0.0000 C   0  0
    1.4281   -1.6502    0.0000 C   0  0
    2.1419   -2.0639    0.0000 C   0  0
    2.8570   -1.6525    0.0000 C   0  0
    2.8583   -0.8275    0.0000 C   0  0
    2.1445   -0.4139    0.0000 N   0  3
    2.1456    0.2461    0.0000 O   0  5
    1.4293   -0.8252    0.0000 C   0  0
    0.7145   -0.4125    0.0000 C   0  0
    0.7145    0.4125    0.0000 C   0  0
    0.0000    0.8250    0.0000 C   0  0
   -0.7145    0.4125    0.0000 C   0  0
   -1.4290    0.8250    0.0000 C   0  0
   -2.1434    0.4125    0.0000 C   0  0
   -2.8592    0.8237    0.0000 N   0  0
   -3.5735    0.4100    0.0000 C   0  0
   -3.5723   -0.2500    0.0000 O   0  0
   -4.2892    0.8213    0.0000 C   0  0
   -5.0706    0.7961    0.0000 C   0  0
   -4.6581    1.5106    0.0000 C   0  0
   -2.1434   -0.4125    0.0000 N   0  0
   -1.4290   -0.8250    0.0000 C   0  0
   -0.7145   -0.4125    0.0000 C   0  0
    0.0000   -0.8250    0.0000 C   0  0
   -2.8601    1.3738    0.0000 H   0  0
  1  2  1  0
  2  3  2  0
  3  4  1  0
  4  5  2  0
  5  6  1  0
  6  7  1  0
  6  8  2  0
  8  2  1  0
  8  9  1  0
  9 10  2  0
 10 11  1  0
 11 12  2  0
 12 13  1  0
 13 14  2  0
 14 15  1  0
 14 21  1  0
 15 16  1  0
 15 25  1  0
 16 17  2  0
 16 18  1  0
 18 19  1  0
 19 20  1  0
 20 18  1  0
 21 22  2  0
 22 23  1  0
 23 12  1  0
 23 24  2  0
 24  9  1  0
M  CHG  2   6   1   7  -1
M  END
> <CMPD_CHEMBLID>
CHEMBL3689723

> <STANDARD_TYPE>
Ki

> <RELATION>
=

> <STANDARD_VALUE>
0.0896

> <STANDARD_UNITS>
nM

> <Molecular_Weight>
319.35718

$$$$

  SciTegic11272012012D

 26 29  0  0  0  0            999 V2000
    2.1456    0.2461    0.0000 C   0  0
    2.1445   -0.4139    0.0000 C   0  0
    2.8583   -0.8275    0.0000 C   0  0
    2.8570   -1.6525    0.0000 C   0  0
    2.1419   -2.0639    0.0000 C   0  0
    2.1408   -2.7239    0.0000 F   0  0
    1.4281   -1.6502    0.0000 C   0  0
    1.4293   -0.8252    0.0000 C   0  0
    0.7145   -0.4125    0.0000 C   0  0
    0.7145    0.4125    0.0000 C   0  0
    0.0000    0.8250    0.0000 C   0  0
   -0.7145    0.4125    0.0000 C   0  0
   -1.4290    0.8250    0.0000 C   0  0
   -2.1434    0.4125    0.0000 C   0  0
   -2.8592    0.8237    0.0000 N   0  0
   -3.5735    0.4100    0.0000 C   0  0
   -3.5723   -0.2500    0.0000 O   0  0
   -4.2892    0.8213    0.0000 C   0  0
   -4.6581    1.5106    0.0000 C   0  0
   -5.0706    0.7961    0.0000 C   0  0
   -5.6369    0.4571    0.0000 F   0  0
   -2.1434   -0.4125    0.0000 N   0  0
   -1.4290   -0.8250    0.0000 C   0  0
   -0.7145   -0.4125    0.0000 C   0  0
    0.0000   -0.8250    0.0000 C   0  0
   -2.8601    1.3738    0.0000 H   0  0
  1  2  1  0
  2  3  2  0
  3  4  1  0
  4  5  2  0
  5  6  1  0
  5  7  1  0
  7  8  2  0
  8  2  1  0
  8  9  1  0
  9 10  2  0
 10 11  1  0
 11 12  2  0
 12 13  1  0
 13 14  2  0
 14 15  1  0
 14 22  1  0
 15 16  1  0
 15 26  1  0
 16 17  2  0
 16 18  1  0
 18 19  1  0
 19 20  1  0
 20 18  1  0
 20 21  1  0
 22 23  2  0
 23 24  1  0
 24 12  1  0
 24 25  2  0
 25  9  1  0
M  END
> <CMPD_CHEMBLID>
CHEMBL3685049

> <STANDARD_TYPE>
Ki

> <RELATION>
=

> <STANDARD_VALUE>
0.09

> <STANDARD_UNITS>
nM

> <Molecular_Weight>
338.35065

$$$$

  SciTegic11272012012D

 27 30  0  0  0  0            999 V2000
    2.1456    0.2461    0.0000 C   0  0
    2.1446   -0.4139    0.0000 C   0  0
    2.8584   -0.8275    0.0000 C   0  0
    3.5747   -0.4174    0.0000 N   0  0
    2.8570   -1.6525    0.0000 C   0  0
    2.1419   -2.0639    0.0000 N   0  0
    1.4281   -1.6503    0.0000 C   0  0
    1.4293   -0.8252    0.0000 C   0  0
    0.7145   -0.4125    0.0000 C   0  0
    0.7145    0.4125    0.0000 C   0  0
    0.0000    0.8250    0.0000 C   0  0
   -0.7145    0.4125    0.0000 C   0  0
   -1.4290    0.8250    0.0000 C   0  0
   -2.1435    0.4125    0.0000 C   0  0
   -2.8592    0.8238    0.0000 N   0  0
   -3.5735    0.4100    0.0000 C   0  0
   -3.5723   -0.2500    0.0000 O   0  0
   -4.2892    0.8213    0.0000 C   0  0
   -5.0707    0.7961    0.0000 C   0  0
   -4.6582    1.5106    0.0000 C   0  0
   -2.1435   -0.4125    0.0000 N   0  0
   -1.4290   -0.8250    0.0000 C   0  0
   -0.7145   -0.4125    0.0000 C   0  0
    0.0000   -0.8250    0.0000 C   0  0
   -2.8602    1.3738    0.0000 H   0  0
    4.0502   -0.6938    0.0000 H   0  0
    3.5766    0.1326    0.0000 H   0  0
  1  2  1  0
  2  3  2  0
  3  4  1  0
  3  5  1  0
  4 26  1  0
  4 27  1  0
  5  6  2  0
  6  7  1  0
  7  8  2  0
  8  2  1  0
  8  9  1  0
  9 10  2  0
 10 11  1  0
 11 12  2  0
 12 13  1  0
 13 14  2  0
 14 15  1  0
 14 21  1  0
 15 16  1  0
 15 25  1  0
 16 17  2  0
 16 18  1  0
 18 19  1  0
 19 20  1  0
 20 18  1  0
 21 22  2  0
 22 23  1  0
 23 12  1  0
 23 24  2  0
 24  9  1  0
M  END
> <CMPD_CHEMBLID>
CHEMBL3685178

> <STANDARD_TYPE>
Ki

> <RELATION>
=

> <STANDARD_VALUE>
0.09

> <STANDARD_UNITS>
nM

> <Molecular_Weight>
318.37242

$$$$

  SciTegic11272012012D

 26 29  0  0  0  0            999 V2000
    3.5730   -0.4144    0.0000 O   0  0
    2.8583   -0.8275    0.0000 C   0  0
    2.1445   -0.4139    0.0000 C   0  0
    1.4293   -0.8252    0.0000 C   0  0
    1.4281   -1.6502    0.0000 C   0  0
    2.1419   -2.0639    0.0000 C   0  0
    2.8570   -1.6525    0.0000 C   0  0
    3.4281   -1.9834    0.0000 F   0  0
    0.7145   -0.4125    0.0000 C   0  0
    0.7145    0.4125    0.0000 C   0  0
    0.0000    0.8250    0.0000 C   0  0
   -0.7145    0.4125    0.0000 C   0  0
   -1.4290    0.8250    0.0000 C   0  0
   -2.1434    0.4125    0.0000 C   0  0
   -2.8592    0.8237    0.0000 N   0  0
   -3.5735    0.4100    0.0000 C   0  0
   -3.5723   -0.2500    0.0000 O   0  0
   -4.2892    0.8213    0.0000 C   0  0
   -5.0706    0.7961    0.0000 C   0  0
   -4.6581    1.5106    0.0000 C   0  0
   -2.1434   -0.4125    0.0000 N   0  0
   -1.4290   -0.8250    0.0000 C   0  0
   -0.7145   -0.4125    0.0000 C   0  0
    0.0000   -0.8250    0.0000 C   0  0
   -2.8601    1.3738    0.0000 H   0  0
    3.5731    0.1356    0.0000 H   0  0
  1  2  1  0
  1 26  1  0
  2  3  2  0
  3  4  1  0
  4  5  2  0
  4  9  1  0
  5  6  1  0
  6  7  2  0
  7  2  1  0
  7  8  1  0
  9 10  2  0
 10 11  1  0
 11 12  2  0
 12 13  1  0
 13 14  2  0
 14 15  1  0
 14 21  1  0
 15 16  1  0
 15 25  1  0
 16 17  2  0
 16 18  1  0
 18 19  1  0
 19 20  1  0
 20 18  1  0
 21 22  2  0
 22 23  1  0
 23 12  1  0
 23 24  2  0
 24  9  1  0
M  END
> <CMPD_CHEMBLID>
CHEMBL3685097

> <STANDARD_TYPE>
Ki

> <RELATION>
=

> <STANDARD_VALUE>
0.09

> <STANDARD_UNITS>
nM

> <Molecular_Weight>
322.333

$$$$

  SciTegic11272012012D

 33 37  0  0  0  0            999 V2000
    2.1456    0.2461    0.0000 C   0  0
    2.1446   -0.4139    0.0000 C   0  0
    2.8584   -0.8275    0.0000 C   0  0
    2.8570   -1.6525    0.0000 C   0  0
    2.1419   -2.0639    0.0000 C   0  0
    2.1389   -2.8894    0.0000 N   0  0
    1.4228   -3.3000    0.0000 C   0  0
    0.8523   -2.9681    0.0000 O   0  0
    1.4198   -4.1254    0.0000 N   0  0
    0.7516   -4.5973    0.0000 C   0  0
    1.0053   -5.3823    0.0000 C   0  0
    1.8303   -5.3836    0.0000 C   0  0
    2.0865   -4.5994    0.0000 C   0  0
    1.4281   -1.6503    0.0000 C   0  0
    1.4293   -0.8252    0.0000 C   0  0
    0.7145   -0.4125    0.0000 C   0  0
    0.7145    0.4125    0.0000 C   0  0
    0.0000    0.8250    0.0000 C   0  0
   -0.7145    0.4125    0.0000 C   0  0
   -1.4290    0.8250    0.0000 C   0  0
   -2.1435    0.4125    0.0000 C   0  0
   -2.8592    0.8238    0.0000 N   0  0
   -3.5735    0.4100    0.0000 C   0  0
   -3.5723   -0.2500    0.0000 O   0  0
   -4.2892    0.8213    0.0000 C   0  0
   -5.0707    0.7961    0.0000 C   0  0
   -4.6582    1.5106    0.0000 C   0  0
   -2.1435   -0.4125    0.0000 N   0  0
   -1.4290   -0.8250    0.0000 C   0  0
   -0.7145   -0.4125    0.0000 C   0  0
    0.0000   -0.8250    0.0000 C   0  0
   -2.8602    1.3738    0.0000 H   0  0
    2.6143   -3.1660    0.0000 H   0  0
  1  2  1  0
  2  3  2  0
  3  4  1  0
  4  5  2  0
  5  6  1  0
  5 14  1  0
  6  7  1  0
  6 33  1  0
  7  8  2  0
  7  9  1  0
  9 10  1  0
 10 11  1  0
 11 12  1  0
 12 13  1  0
 13  9  1  0
 14 15  2  0
 15  2  1  0
 15 16  1  0
 16 17  2  0
 17 18  1  0
 18 19  2  0
 19 20  1  0
 20 21  2  0
 21 22  1  0
 21 28  1  0
 22 23  1  0
 22 32  1  0
 23 24  2  0
 23 25  1  0
 25 26  1  0
 26 27  1  0
 27 25  1  0
 28 29  2  0
 29 30  1  0
 30 19  1  0
 30 31  2  0
 31 16  1  0
M  END
> <CMPD_CHEMBLID>
CHEMBL3689548

> <STANDARD_TYPE>
Ki

> <RELATION>
=

> <STANDARD_VALUE>
0.09

> <STANDARD_UNITS>
nM

> <Molecular_Weight>
414.49954

$$$$

  SciTegic11272012012D

 24 26  0  0  0  0            999 V2000
    2.1404   -2.7264    0.0000 C   0  0
    2.1413   -2.0663    0.0000 N   0  0
    1.4273   -1.6521    0.0000 C   0  0
    0.8551   -1.9812    0.0000 O   0  0
    1.4285   -0.8267    0.0000 N   0  0
    0.7144   -0.4125    0.0000 C   0  0
    0.7144    0.4125    0.0000 C   0  0
    0.0000    0.8250    0.0000 C   0  0
    0.0000    1.6500    0.0000 C   0  0
   -0.7145    2.0625    0.0000 C   0  0
   -1.4290    1.6500    0.0000 C   0  0
   -1.4290    0.8250    0.0000 C   0  0
   -0.7144    0.4125    0.0000 C   0  0
   -0.7144   -0.4125    0.0000 C   0  0
    0.0000   -0.8250    0.0000 N   0  0
   -2.1438    2.0627    0.0000 C   0  0
   -2.8576    1.6491    0.0000 C   0  0
   -3.5728    2.0605    0.0000 N   0  0
   -3.5741    2.8855    0.0000 C   0  0
   -2.8603    3.2991    0.0000 C   0  0
   -2.1452    2.8877    0.0000 C   0  0
   -1.5741    3.2187    0.0000 C   0  0
    1.9053   -0.5525    0.0000 H   0  0
    2.6181   -1.7922    0.0000 H   0  0
  1  2  1  0
  2  3  1  0
  2 24  1  0
  3  4  2  0
  3  5  1  0
  5  6  1  0
  5 23  1  0
  6  7  2  0
  7  8  1  0
  8  9  2  0
  9 10  1  0
 10 11  2  0
 11 12  1  0
 11 16  1  0
 12 13  2  0
 13  8  1  0
 13 14  1  0
 14 15  2  0
 15  6  1  0
 16 17  2  0
 17 18  1  0
 18 19  2  0
 19 20  1  0
 20 21  2  0
 21 16  1  0
 21 22  1  0
M  END
> <CMPD_CHEMBLID>
CHEMBL3689633

> <STANDARD_TYPE>
Ki

> <RELATION>
=

> <STANDARD_VALUE>
0.1

> <STANDARD_UNITS>
nM

> <Molecular_Weight>
292.33514

$$$$

  SciTegic11272012012D

 25 28  0  0  0  0            999 V2000
    1.2861   -0.7425    0.0000 C   0  0
    0.7144   -0.4125    0.0000 C   0  0
    0.7144    0.4125    0.0000 N   0  0
    0.0000    0.8250    0.0000 C   0  0
   -0.7144    0.4125    0.0000 C   0  0
   -0.7144   -0.4125    0.0000 C   0  0
   -1.4290   -0.8250    0.0000 C   0  0
   -1.4290   -1.6500    0.0000 N   0  0
   -0.7144   -2.0625    0.0000 C   0  0
   -0.7127   -2.8879    0.0000 N   0  0
    0.0027   -3.2997    0.0000 C   0  0
    0.5737   -2.9687    0.0000 O   0  0
    0.0044   -4.1251    0.0000 C   0  0
    0.4168   -4.7893    0.0000 C   0  0
   -0.4082   -4.7893    0.0000 C   0  0
    0.0000   -1.6500    0.0000 C   0  0
    0.0000   -0.8250    0.0000 C   0  0
    0.0000    1.6504    0.0000 C   0  0
   -0.7151    2.0618    0.0000 C   0  0
   -0.7164    2.8868    0.0000 C   0  0
   -0.0026    3.3005    0.0000 C   0  0
    0.7125    2.8891    0.0000 C   0  0
    0.7138    2.0641    0.0000 C   0  0
    1.2859    1.7350    0.0000 Cl  0  0
   -1.1886   -3.1638    0.0000 H   0  0
  1  2  1  0
  2  3  2  0
  3  4  1  0
  4  5  2  0
  4 18  1  0
  5  6  1  0
  6  7  2  0
  7  8  1  0
  8  9  2  0
  9 10  1  0
  9 16  1  0
 10 11  1  0
 10 25  1  0
 11 12  2  0
 11 13  1  0
 13 14  1  0
 14 15  1  0
 15 13  1  0
 16 17  2  0
 17  2  1  0
 17  6  1  0
 18 19  2  0
 19 20  1  0
 20 21  2  0
 21 22  1  0
 22 23  2  0
 23 18  1  0
 23 24  1  0
M  END
> <CMPD_CHEMBLID>
CHEMBL3689636

> <STANDARD_TYPE>
Ki

> <RELATION>
=

> <STANDARD_VALUE>
0.1

> <STANDARD_UNITS>
nM

> <Molecular_Weight>
337.80284

$$$$

  SciTegic11272012012D

 25 28  0  0  0  0            999 V2000
    2.1455    0.2461    0.0000 C   0  0
    2.1445   -0.4139    0.0000 C   0  0
    2.8583   -0.8275    0.0000 C   0  0
    2.8570   -1.6525    0.0000 C   0  0
    2.1419   -2.0639    0.0000 C   0  0
    2.1408   -2.7239    0.0000 F   0  0
    1.4281   -1.6502    0.0000 C   0  0
    1.4293   -0.8252    0.0000 C   0  0
    0.7144   -0.4125    0.0000 C   0  0
    0.7144    0.4125    0.0000 C   0  0
    0.0000    0.8250    0.0000 C   0  0
    0.0000    1.6500    0.0000 C   0  0
   -0.7145    2.0625    0.0000 N   0  0
   -1.4290    1.6500    0.0000 C   0  0
   -2.1447    2.0612    0.0000 N   0  0
   -2.8590    1.6475    0.0000 C   0  0
   -2.8578    0.9875    0.0000 O   0  0
   -3.5747    2.0588    0.0000 C   0  0
   -4.3561    2.0337    0.0000 C   0  0
   -3.9436    2.7481    0.0000 C   0  0
   -1.4290    0.8250    0.0000 C   0  0
   -0.7144    0.4125    0.0000 C   0  0
   -0.7144   -0.4125    0.0000 C   0  0
    0.0000   -0.8250    0.0000 N   0  0
   -2.1457    2.6112    0.0000 H   0  0
  1  2  1  0
  2  3  2  0
  3  4  1  0
  4  5  2  0
  5  6  1  0
  5  7  1  0
  7  8  2  0
  8  2  1  0
  8  9  1  0
  9 10  2  0
 10 11  1  0
 11 12  2  0
 12 13  1  0
 13 14  2  0
 14 15  1  0
 14 21  1  0
 15 16  1  0
 15 25  1  0
 16 17  2  0
 16 18  1  0
 18 19  1  0
 19 20  1  0
 20 18  1  0
 21 22  2  0
 22 11  1  0
 22 23  1  0
 23 24  2  0
 24  9  1  0
M  END
> <CMPD_CHEMBLID>
CHEMBL3689646

> <STANDARD_TYPE>
Ki

> <RELATION>
=

> <STANDARD_VALUE>
0.1

> <STANDARD_UNITS>
nM

> <Molecular_Weight>
321.34824

$$$$

  SciTegic11272012012D

 26 29  0  0  0  0            999 V2000
    2.1456    0.2461    0.0000 C   0  0
    2.1446   -0.4139    0.0000 C   0  0
    2.8584   -0.8275    0.0000 C   0  0
    2.8570   -1.6525    0.0000 C   0  0
    2.1419   -2.0639    0.0000 N   0  0
    1.4281   -1.6503    0.0000 C   0  0
    1.4293   -0.8252    0.0000 C   0  0
    0.7145   -0.4125    0.0000 C   0  0
    0.7145    0.4125    0.0000 C   0  0
    0.0000    0.8250    0.0000 C   0  0
   -0.7145    0.4125    0.0000 C   0  0
   -1.4290    0.8250    0.0000 C   0  0
   -2.1435    0.4125    0.0000 C   0  0
   -2.8592    0.8238    0.0000 N   0  0
   -3.5735    0.4100    0.0000 C   0  0
   -3.5723   -0.2500    0.0000 O   0  0
   -4.2892    0.8213    0.0000 C   0  0
   -4.6582    1.5106    0.0000 C   0  0
   -5.0707    0.7961    0.0000 C   0  0
   -5.0684    0.1362    0.0000 F   0  0
   -5.6515    1.1096    0.0000 F   0  0
   -2.1435   -0.4125    0.0000 N   0  0
   -1.4290   -0.8250    0.0000 C   0  0
   -0.7145   -0.4125    0.0000 C   0  0
    0.0000   -0.8250    0.0000 C   0  0
   -2.8602    1.3738    0.0000 H   0  0
  1  2  1  0
  2  3  2  0
  3  4  1  0
  4  5  2  0
  5  6  1  0
  6  7  2  0
  7  2  1  0
  7  8  1  0
  8  9  2  0
  9 10  1  0
 10 11  2  0
 11 12  1  0
 12 13  2  0
 13 14  1  0
 13 22  1  0
 14 15  1  0
 14 26  1  0
 15 16  2  0
 15 17  1  0
 17 18  1  0
 18 19  1  0
 19 17  1  0
 19 20  1  0
 19 21  1  0
 22 23  2  0
 23 24  1  0
 24 11  1  0
 24 25  2  0
 25  8  1  0
M  END
> <CMPD_CHEMBLID>
CHEMBL3689607

> <STANDARD_TYPE>
Ki

> <RELATION>
=

> <STANDARD_VALUE>
0.1

> <STANDARD_UNITS>
nM

> <Molecular_Weight>
339.33871

$$$$

  SciTegic11272012012D

 26 29  0  0  0  0            999 V2000
    2.1456    0.2461    0.0000 C   0  0
    2.1445   -0.4139    0.0000 C   0  0
    2.8583   -0.8275    0.0000 N   0  0
    2.8570   -1.6525    0.0000 C   0  0
    2.1419   -2.0639    0.0000 C   0  0
    2.1389   -2.8894    0.0000 O   0  0
    1.4281   -1.6502    0.0000 C   0  0
    1.4293   -0.8252    0.0000 C   0  0
    0.7145   -0.4125    0.0000 C   0  0
    0.7145    0.4125    0.0000 C   0  0
    0.0000    0.8250    0.0000 C   0  0
   -0.7145    0.4125    0.0000 C   0  0
   -1.4290    0.8250    0.0000 C   0  0
   -2.1434    0.4125    0.0000 C   0  0
   -2.8592    0.8237    0.0000 N   0  0
   -3.5735    0.4100    0.0000 C   0  0
   -3.5723   -0.2500    0.0000 O   0  0
   -4.2892    0.8213    0.0000 C   0  0
   -5.0706    0.7961    0.0000 C   0  0
   -4.6581    1.5106    0.0000 C   0  0
   -2.1434   -0.4125    0.0000 N   0  0
   -1.4290   -0.8250    0.0000 C   0  0
   -0.7145   -0.4125    0.0000 C   0  0
    0.0000   -0.8250    0.0000 C   0  0
   -2.8601    1.3738    0.0000 H   0  0
    1.6617   -3.1629    0.0000 H   0  0
  1  2  1  0
  2  3  2  0
  3  4  1  0
  4  5  2  0
  5  6  1  0
  5  7  1  0
  6 26  1  0
  7  8  2  0
  8  2  1  0
  8  9  1  0
  9 10  2  0
 10 11  1  0
 11 12  2  0
 12 13  1  0
 13 14  2  0
 14 15  1  0
 14 21  1  0
 15 16  1  0
 15 25  1  0
 16 17  2  0
 16 18  1  0
 18 19  1  0
 19 20  1  0
 20 18  1  0
 21 22  2  0
 22 23  1  0
 23 12  1  0
 23 24  2  0
 24  9  1  0
M  END
> <CMPD_CHEMBLID>
CHEMBL3689606

> <STANDARD_TYPE>
Ki

> <RELATION>
=

> <STANDARD_VALUE>
0.1

> <STANDARD_UNITS>
nM

> <Molecular_Weight>
319.35718

$$$$

  SciTegic11272012012D

 31 35  0  0  0  0            999 V2000
    2.1455    0.2461    0.0000 C   0  0
    2.1445   -0.4139    0.0000 C   0  0
    2.8583   -0.8275    0.0000 C   0  0
    2.8570   -1.6525    0.0000 C   0  0
    2.1419   -2.0639    0.0000 C   0  0
    2.1408   -2.7239    0.0000 F   0  0
    1.4281   -1.6502    0.0000 C   0  0
    1.4293   -0.8252    0.0000 C   0  0
    0.7144   -0.4125    0.0000 C   0  0
    0.7144    0.4125    0.0000 C   0  0
    0.0000    0.8250    0.0000 C   0  0
    0.0000    1.6500    0.0000 C   0  0
   -0.7145    2.0625    0.0000 N   0  0
   -1.4290    1.6500    0.0000 C   0  0
   -2.1447    2.0612    0.0000 N   0  0
   -2.8590    1.6475    0.0000 C   0  0
   -2.8578    0.9875    0.0000 O   0  0
   -3.5747    2.0588    0.0000 C   0  0
   -4.3561    2.0337    0.0000 C   0  0
   -3.9436    2.7481    0.0000 C   0  0
   -1.4290    0.8250    0.0000 C   0  0
   -0.7144    0.4125    0.0000 C   0  0
   -0.7144   -0.4125    0.0000 C   0  0
    0.0000   -0.8250    0.0000 N   0  0
   -1.4293   -0.8252    0.0000 C   0  0
   -2.1731   -0.4848    0.0000 C   0  0
   -2.7242   -1.0988    0.0000 N   0  0
   -2.3105   -1.8126    0.0000 N   0  0
   -2.5780   -2.4160    0.0000 C   0  0
   -1.5039   -1.6398    0.0000 C   0  0
   -2.1457    2.6112    0.0000 H   0  0
  1  2  1  0
  2  3  2  0
  3  4  1  0
  4  5  2  0
  5  6  1  0
  5  7  1  0
  7  8  2  0
  8  2  1  0
  8  9  1  0
  9 10  2  0
 10 11  1  0
 11 12  2  0
 12 13  1  0
 13 14  2  0
 14 15  1  0
 14 21  1  0
 15 16  1  0
 15 31  1  0
 16 17  2  0
 16 18  1  0
 18 19  1  0
 19 20  1  0
 20 18  1  0
 21 22  2  0
 22 11  1  0
 22 23  1  0
 23 24  2  0
 23 25  1  0
 24  9  1  0
 25 26  1  0
 26 27  2  0
 27 28  1  0
 28 29  1  0
 28 30  1  0
 30 25  2  0
M  END
> <CMPD_CHEMBLID>
CHEMBL3689666

> <STANDARD_TYPE>
Ki

> <RELATION>
=

> <STANDARD_VALUE>
0.1

> <STANDARD_UNITS>
nM

> <Molecular_Weight>
401.4362

$$$$

  SciTegic11272012012D

 31 35  0  0  0  0            999 V2000
    2.1455    0.2461    0.0000 C   0  0
    2.1445   -0.4139    0.0000 C   0  0
    2.8583   -0.8275    0.0000 C   0  0
    2.8570   -1.6525    0.0000 C   0  0
    2.1419   -2.0639    0.0000 C   0  0
    2.1408   -2.7239    0.0000 F   0  0
    1.4281   -1.6502    0.0000 C   0  0
    1.4293   -0.8252    0.0000 C   0  0
    0.7144   -0.4125    0.0000 C   0  0
    0.7144    0.4125    0.0000 C   0  0
    0.0000    0.8250    0.0000 C   0  0
    0.0000    1.6500    0.0000 C   0  0
   -0.7145    2.0625    0.0000 N   0  0
   -1.4290    1.6500    0.0000 C   0  0
   -2.1447    2.0612    0.0000 N   0  0
   -2.8590    1.6475    0.0000 C   0  0
   -2.8578    0.9875    0.0000 O   0  0
   -3.5747    2.0588    0.0000 C   0  0
   -4.3561    2.0337    0.0000 C   0  0
   -3.9436    2.7481    0.0000 C   0  0
   -1.4290    0.8250    0.0000 C   0  0
   -0.7144    0.4125    0.0000 C   0  0
   -0.7144   -0.4125    0.0000 C   0  0
    0.0000   -0.8250    0.0000 N   0  0
   -1.4293   -0.8252    0.0000 C   0  0
   -2.1731   -0.4848    0.0000 C   0  0
   -2.7242   -1.0988    0.0000 N   0  0
   -2.3105   -1.8126    0.0000 N   0  0
   -1.5039   -1.6398    0.0000 C   0  0
   -2.5335   -2.3154    0.0000 H   0  0
   -2.1457    2.6112    0.0000 H   0  0
  1  2  1  0
  2  3  2  0
  3  4  1  0
  4  5  2  0
  5  6  1  0
  5  7  1  0
  7  8  2  0
  8  2  1  0
  8  9  1  0
  9 10  2  0
 10 11  1  0
 11 12  2  0
 12 13  1  0
 13 14  2  0
 14 15  1  0
 14 21  1  0
 15 16  1  0
 15 31  1  0
 16 17  2  0
 16 18  1  0
 18 19  1  0
 19 20  1  0
 20 18  1  0
 21 22  2  0
 22 11  1  0
 22 23  1  0
 23 24  2  0
 23 25  1  0
 24  9  1  0
 25 26  1  0
 26 27  2  0
 27 28  1  0
 28 29  1  0
 28 30  1  0
 29 25  2  0
M  END
> <CMPD_CHEMBLID>
CHEMBL3689667

> <STANDARD_TYPE>
Ki

> <RELATION>
=

> <STANDARD_VALUE>
0.1

> <STANDARD_UNITS>
nM

> <Molecular_Weight>
387.40962

$$$$

  SciTegic11272012012D

 24 27  0  0  0  0            999 V2000
    2.1456    0.2461    0.0000 C   0  0
    2.1446   -0.4139    0.0000 C   0  0
    2.8584   -0.8275    0.0000 C   0  0
    2.8570   -1.6525    0.0000 C   0  0
    2.1419   -2.0639    0.0000 C   0  0
    1.4281   -1.6503    0.0000 N   0  0
    1.4293   -0.8252    0.0000 C   0  0
    0.7145   -0.4125    0.0000 C   0  0
    0.7145    0.4125    0.0000 C   0  0
    0.0000    0.8250    0.0000 C   0  0
   -0.7145    0.4125    0.0000 C   0  0
   -1.4290    0.8250    0.0000 C   0  0
   -2.1435    0.4125    0.0000 C   0  0
   -2.8592    0.8238    0.0000 N   0  0
   -3.5735    0.4100    0.0000 C   0  0
   -3.5723   -0.2500    0.0000 O   0  0
   -4.2892    0.8213    0.0000 C   0  0
   -5.0707    0.7961    0.0000 C   0  0
   -4.6582    1.5106    0.0000 C   0  0
   -2.1435   -0.4125    0.0000 N   0  0
   -1.4290   -0.8250    0.0000 C   0  0
   -0.7145   -0.4125    0.0000 C   0  0
    0.0000   -0.8250    0.0000 C   0  0
   -2.8602    1.3738    0.0000 H   0  0
  1  2  1  0
  2  3  2  0
  3  4  1  0
  4  5  2  0
  5  6  1  0
  6  7  2  0
  7  2  1  0
  7  8  1  0
  8  9  2  0
  9 10  1  0
 10 11  2  0
 11 12  1  0
 12 13  2  0
 13 14  1  0
 13 20  1  0
 14 15  1  0
 14 24  1  0
 15 16  2  0
 15 17  1  0
 17 18  1  0
 18 19  1  0
 19 17  1  0
 20 21  2  0
 21 22  1  0
 22 11  1  0
 22 23  2  0
 23  8  1  0
M  END
> <CMPD_CHEMBLID>
CHEMBL3685035

> <STANDARD_TYPE>
Ki

> <RELATION>
=

> <STANDARD_VALUE>
0.1

> <STANDARD_UNITS>
nM

> <Molecular_Weight>
303.35778

$$$$

  SciTegic11272012012D

 29 32  0  0  0  0            999 V2000
    4.1383   -3.2254    0.0000 C   0  0
    3.5679   -2.8933    0.0000 C   0  0
    3.5703   -2.0678    0.0000 C   0  0
    4.2874   -1.6590    0.0000 O   0  0
    2.8570   -1.6525    0.0000 C   0  0
    2.8583   -0.8275    0.0000 C   0  0
    2.1445   -0.4139    0.0000 C   0  0
    2.1456    0.2461    0.0000 C   0  0
    1.4293   -0.8252    0.0000 C   0  0
    1.4281   -1.6502    0.0000 C   0  0
    2.1419   -2.0639    0.0000 N   0  0
    0.7145   -0.4125    0.0000 C   0  0
    0.7145    0.4125    0.0000 C   0  0
    0.0000    0.8250    0.0000 C   0  0
   -0.7145    0.4125    0.0000 C   0  0
   -1.4290    0.8250    0.0000 C   0  0
   -2.1434    0.4125    0.0000 C   0  0
   -2.8591    0.8237    0.0000 N   0  0
   -3.5734    0.4100    0.0000 C   0  0
   -3.5723   -0.2500    0.0000 O   0  0
   -4.2891    0.8213    0.0000 C   0  0
   -5.0706    0.7961    0.0000 C   0  0
   -4.6581    1.5106    0.0000 C   0  0
   -2.1434   -0.4125    0.0000 N   0  0
   -1.4290   -0.8250    0.0000 C   0  0
   -0.7145   -0.4125    0.0000 C   0  0
    0.0000   -0.8250    0.0000 C   0  0
   -2.8601    1.3737    0.0000 H   0  0
    4.7625   -1.9362    0.0000 H   0  0
  1  2  1  0
  2  3  1  0
  3  4  1  0
  3  5  1  0
  4 29  1  0
  5  6  2  0
  6  7  1  0
  7  8  1  0
  7  9  2  0
  9 10  1  0
  9 12  1  0
 10 11  2  0
 11  5  1  0
 12 13  2  0
 13 14  1  0
 14 15  2  0
 15 16  1  0
 16 17  2  0
 17 18  1  0
 17 24  1  0
 18 19  1  0
 18 28  1  0
 19 20  2  0
 19 21  1  0
 21 22  1  0
 22 23  1  0
 23 21  1  0
 24 25  2  0
 25 26  1  0
 26 15  1  0
 26 27  2  0
 27 12  1  0
M  END
> <CMPD_CHEMBLID>
CHEMBL3689563

> <STANDARD_TYPE>
Ki

> <RELATION>
=

> <STANDARD_VALUE>
0.1

> <STANDARD_UNITS>
nM

> <Molecular_Weight>
361.43692

$$$$

  SciTegic11272012012D

 25 27  0  0  0  0            999 V2000
    2.1404   -2.7264    0.0000 C   0  0
    2.1413   -2.0663    0.0000 N   0  0
    1.4273   -1.6521    0.0000 C   0  0
    0.8551   -1.9812    0.0000 O   0  0
    1.4285   -0.8267    0.0000 N   0  0
    0.7144   -0.4125    0.0000 C   0  0
    0.7144    0.4125    0.0000 C   0  0
    0.0000    0.8250    0.0000 C   0  0
    0.0000    1.6500    0.0000 C   0  0
   -0.7145    2.0625    0.0000 C   0  0
   -1.4290    1.6500    0.0000 C   0  0
   -1.4290    0.8250    0.0000 C   0  0
   -0.7144    0.4125    0.0000 C   0  0
   -0.7144   -0.4125    0.0000 C   0  0
    0.0000   -0.8250    0.0000 N   0  0
   -2.1438    2.0627    0.0000 C   0  0
   -2.8576    1.6491    0.0000 C   0  0
   -3.5728    2.0605    0.0000 C   0  0
   -4.1438    1.7295    0.0000 F   0  0
   -3.5741    2.8855    0.0000 C   0  0
   -2.8603    3.2991    0.0000 C   0  0
   -2.1452    2.8877    0.0000 C   0  0
   -1.5741    3.2187    0.0000 C   0  0
    1.9053   -0.5525    0.0000 H   0  0
    2.6181   -1.7922    0.0000 H   0  0
  1  2  1  0
  2  3  1  0
  2 25  1  0
  3  4  2  0
  3  5  1  0
  5  6  1  0
  5 24  1  0
  6  7  2  0
  7  8  1  0
  8  9  2  0
  9 10  1  0
 10 11  2  0
 11 12  1  0
 11 16  1  0
 12 13  2  0
 13  8  1  0
 13 14  1  0
 14 15  2  0
 15  6  1  0
 16 17  2  0
 17 18  1  0
 18 19  1  0
 18 20  2  0
 20 21  1  0
 21 22  2  0
 22 16  1  0
 22 23  1  0
M  END
> <CMPD_CHEMBLID>
CHEMBL3685072

> <STANDARD_TYPE>
Ki

> <RELATION>
=

> <STANDARD_VALUE>
0.1

> <STANDARD_UNITS>
nM

> <Molecular_Weight>
309.33754

$$$$

  SciTegic11272012012D

 24 27  0  0  0  0            999 V2000
    2.3076    0.1614    0.0000 C   0  0
    2.1732   -0.4848    0.0000 C   0  0
    2.7243   -1.0988    0.0000 C   0  0
    2.3106   -1.8126    0.0000 N   0  0
    1.5039   -1.6399    0.0000 N   0  0
    1.4293   -0.8252    0.0000 C   0  0
    0.7145   -0.4125    0.0000 C   0  0
    0.7145    0.4125    0.0000 C   0  0
    0.0000    0.8250    0.0000 C   0  0
   -0.7145    0.4125    0.0000 C   0  0
   -1.4290    0.8250    0.0000 C   0  0
   -2.1435    0.4125    0.0000 C   0  0
   -2.8592    0.8238    0.0000 N   0  0
   -3.5735    0.4100    0.0000 C   0  0
   -3.5723   -0.2500    0.0000 O   0  0
   -4.2892    0.8213    0.0000 C   0  0
   -5.0707    0.7961    0.0000 C   0  0
   -4.6582    1.5106    0.0000 C   0  0
   -2.1435   -0.4125    0.0000 N   0  0
   -1.4290   -0.8250    0.0000 C   0  0
   -0.7145   -0.4125    0.0000 C   0  0
    0.0000   -0.8250    0.0000 C   0  0
   -2.8602    1.3738    0.0000 H   0  0
    2.5335   -2.3154    0.0000 H   0  0
  1  2  1  0
  2  3  2  0
  3  4  1  0
  4  5  1  0
  4 24  1  0
  5  6  2  0
  6  2  1  0
  6  7  1  0
  7  8  2  0
  8  9  1  0
  9 10  2  0
 10 11  1  0
 11 12  2  0
 12 13  1  0
 12 19  1  0
 13 14  1  0
 13 23  1  0
 14 15  2  0
 14 16  1  0
 16 17  1  0
 17 18  1  0
 18 16  1  0
 19 20  2  0
 20 21  1  0
 21 10  1  0
 21 22  2  0
 22  7  1  0
M  END
> <CMPD_CHEMBLID>
CHEMBL3685102

> <STANDARD_TYPE>
Ki

> <RELATION>
=

> <STANDARD_VALUE>
0.1

> <STANDARD_UNITS>
nM

> <Molecular_Weight>
292.33514

$$$$

  SciTegic11272012012D

 25 28  0  0  0  0            999 V2000
    2.1456    0.2461    0.0000 C   0  0
    2.1446   -0.4139    0.0000 C   0  0
    2.8584   -0.8275    0.0000 C   0  0
    2.8570   -1.6525    0.0000 C   0  0
    3.4281   -1.9835    0.0000 Cl  0  0
    2.1419   -2.0639    0.0000 N   0  0
    1.4281   -1.6503    0.0000 C   0  0
    1.4293   -0.8252    0.0000 C   0  0
    0.7145   -0.4125    0.0000 C   0  0
    0.7145    0.4125    0.0000 C   0  0
    0.0000    0.8250    0.0000 C   0  0
   -0.7145    0.4125    0.0000 C   0  0
   -1.4290    0.8250    0.0000 C   0  0
   -2.1435    0.4125    0.0000 C   0  0
   -2.8592    0.8238    0.0000 N   0  0
   -3.5735    0.4100    0.0000 C   0  0
   -3.5723   -0.2500    0.0000 O   0  0
   -4.2892    0.8213    0.0000 C   0  0
   -5.0707    0.7961    0.0000 C   0  0
   -4.6582    1.5106    0.0000 C   0  0
   -2.1435   -0.4125    0.0000 N   0  0
   -1.4290   -0.8250    0.0000 C   0  0
   -0.7145   -0.4125    0.0000 C   0  0
    0.0000   -0.8250    0.0000 C   0  0
   -2.8602    1.3738    0.0000 H   0  0
  1  2  1  0
  2  3  2  0
  3  4  1  0
  4  5  1  0
  4  6  2  0
  6  7  1  0
  7  8  2  0
  8  2  1  0
  8  9  1  0
  9 10  2  0
 10 11  1  0
 11 12  2  0
 12 13  1  0
 13 14  2  0
 14 15  1  0
 14 21  1  0
 15 16  1  0
 15 25  1  0
 16 17  2  0
 16 18  1  0
 18 19  1  0
 19 20  1  0
 20 18  1  0
 21 22  2  0
 22 23  1  0
 23 12  1  0
 23 24  2  0
 24  9  1  0
M  END
> <CMPD_CHEMBLID>
CHEMBL3685146

> <STANDARD_TYPE>
Ki

> <RELATION>
=

> <STANDARD_VALUE>
0.1

> <STANDARD_UNITS>
nM

> <Molecular_Weight>
337.80284

$$$$

  SciTegic11272012012D

 28 31  0  0  0  0            999 V2000
    2.1455    0.2461    0.0000 C   0  0
    2.1445   -0.4139    0.0000 C   0  0
    2.8583   -0.8275    0.0000 C   0  0
    2.8570   -1.6525    0.0000 C   0  0
    2.1419   -2.0639    0.0000 N   0  0
    1.4281   -1.6502    0.0000 C   0  0
    1.4293   -0.8252    0.0000 C   0  0
    0.7144   -0.4125    0.0000 C   0  0
    0.7144    0.4125    0.0000 C   0  0
    0.0000    0.8250    0.0000 C   0  0
   -0.7144    0.4125    0.0000 C   0  0
   -1.4290    0.8250    0.0000 C   0  0
   -2.1434    0.4125    0.0000 C   0  0
   -2.8591    0.8237    0.0000 N   0  0
   -3.5734    0.4100    0.0000 C   0  0
   -4.2893    0.8200    0.0000 C   0  0
   -5.0024    0.4050    0.0000 C   0  0
   -5.7195    0.8138    0.0000 C   0  0
   -6.4324    0.3975    0.0000 O   0  0
   -4.9995   -0.4200    0.0000 C   0  0
   -4.2836   -0.8300    0.0000 C   0  0
   -3.5706   -0.4150    0.0000 N   0  0
   -2.1434   -0.4125    0.0000 N   0  0
   -1.4290   -0.8250    0.0000 C   0  0
   -0.7144   -0.4125    0.0000 C   0  0
    0.0000   -0.8250    0.0000 C   0  0
   -6.9102    0.6700    0.0000 H   0  0
   -2.8601    1.3737    0.0000 H   0  0
  1  2  1  0
  2  3  2  0
  3  4  1  0
  4  5  2  0
  5  6  1  0
  6  7  2  0
  7  2  1  0
  7  8  1  0
  8  9  2  0
  9 10  1  0
 10 11  2  0
 11 12  1  0
 12 13  2  0
 13 14  1  0
 13 23  1  0
 14 15  1  0
 14 28  1  0
 15 16  2  0
 16 17  1  0
 17 18  1  0
 17 20  2  0
 18 19  1  0
 19 27  1  0
 20 21  1  0
 21 22  2  0
 22 15  1  0
 23 24  2  0
 24 25  1  0
 25 11  1  0
 25 26  2  0
 26  8  1  0
M  END
> <CMPD_CHEMBLID>
CHEMBL3685155

> <STANDARD_TYPE>
Ki

> <RELATION>
=

> <STANDARD_VALUE>
0.1

> <STANDARD_UNITS>
nM

> <Molecular_Weight>
342.39382

$$$$

  SciTegic11272012012D

 26 29  0  0  0  0            999 V2000
    2.8636    0.8221    0.0000 O   0  0
    2.1475    0.4116    0.0000 C   0  0
    2.1445   -0.4139    0.0000 C   0  0
    2.8583   -0.8275    0.0000 N   0  0
    2.8570   -1.6525    0.0000 C   0  0
    2.1419   -2.0639    0.0000 C   0  0
    1.4281   -1.6502    0.0000 C   0  0
    1.4293   -0.8252    0.0000 C   0  0
    0.7144   -0.4125    0.0000 C   0  0
    0.7144    0.4125    0.0000 C   0  0
    0.0000    0.8250    0.0000 C   0  0
   -0.7144    0.4125    0.0000 C   0  0
   -1.4290    0.8250    0.0000 C   0  0
   -2.1434    0.4125    0.0000 C   0  0
   -2.8591    0.8237    0.0000 N   0  0
   -3.5734    0.4100    0.0000 C   0  0
   -3.5722   -0.2500    0.0000 O   0  0
   -4.2891    0.8213    0.0000 C   0  0
   -5.0706    0.7961    0.0000 C   0  0
   -4.6581    1.5106    0.0000 C   0  0
   -2.1434   -0.4125    0.0000 N   0  0
   -1.4290   -0.8250    0.0000 C   0  0
   -0.7144   -0.4125    0.0000 C   0  0
    0.0000   -0.8250    0.0000 C   0  0
   -2.8601    1.3737    0.0000 H   0  0
    2.8657    1.3721    0.0000 H   0  0
  1  2  1  0
  1 26  1  0
  2  3  1  0
  3  4  2  0
  4  5  1  0
  5  6  2  0
  6  7  1  0
  7  8  2  0
  8  3  1  0
  8  9  1  0
  9 10  2  0
 10 11  1  0
 11 12  2  0
 12 13  1  0
 13 14  2  0
 14 15  1  0
 14 21  1  0
 15 16  1  0
 15 25  1  0
 16 17  2  0
 16 18  1  0
 18 19  1  0
 19 20  1  0
 20 18  1  0
 21 22  2  0
 22 23  1  0
 23 12  1  0
 23 24  2  0
 24  9  1  0
M  END
> <CMPD_CHEMBLID>
CHEMBL3685172

> <STANDARD_TYPE>
Ki

> <RELATION>
=

> <STANDARD_VALUE>
0.1

> <STANDARD_UNITS>
nM

> <Molecular_Weight>
319.35718

$$$$

  SciTegic11272012012D

 38 42  0  0  0  0            999 V2000
    2.1326   -7.6737    0.0000 C   0  0
    2.1323   -7.0137    0.0000 N   0  0
    2.7038   -6.6836    0.0000 C   0  0
    1.4175   -6.6008    0.0000 C   0  0
    1.4171   -5.7754    0.0000 C   0  0
    0.7033   -5.3617    0.0000 C   0  0
    0.7046   -4.5367    0.0000 C   0  0
    1.4198   -4.1253    0.0000 C   0  0
    2.1336   -4.5390    0.0000 C   0  0
    2.1322   -5.3640    0.0000 C   0  0
    1.4227   -3.2999    0.0000 C   0  0
    0.8523   -2.9680    0.0000 O   0  0
    2.1388   -2.8893    0.0000 N   0  0
    2.1419   -2.0639    0.0000 C   0  0
    2.8570   -1.6525    0.0000 C   0  0
    2.8583   -0.8275    0.0000 C   0  0
    2.1445   -0.4139    0.0000 C   0  0
    2.1455    0.2461    0.0000 C   0  0
    1.4293   -0.8252    0.0000 C   0  0
    1.4281   -1.6502    0.0000 C   0  0
    0.7144   -0.4125    0.0000 C   0  0
    0.7144    0.4125    0.0000 C   0  0
    0.0000    0.8250    0.0000 C   0  0
   -0.7144    0.4125    0.0000 C   0  0
   -1.4290    0.8250    0.0000 C   0  0
   -2.1434    0.4125    0.0000 C   0  0
   -2.8591    0.8237    0.0000 N   0  0
   -3.5734    0.4100    0.0000 C   0  0
   -3.5722   -0.2500    0.0000 O   0  0
   -4.2891    0.8213    0.0000 C   0  0
   -5.0706    0.7961    0.0000 C   0  0
   -4.6581    1.5106    0.0000 C   0  0
   -2.1434   -0.4125    0.0000 N   0  0
   -1.4290   -0.8250    0.0000 C   0  0
   -0.7144   -0.4125    0.0000 C   0  0
    0.0000   -0.8250    0.0000 C   0  0
   -2.8601    1.3737    0.0000 H   0  0
    2.6143   -3.1659    0.0000 H   0  0
  1  2  1  0
  2  3  1  0
  2  4  1  0
  4  5  1  0
  5  6  2  0
  6  7  1  0
  7  8  2  0
  8  9  1  0
  8 11  1  0
  9 10  2  0
 10  5  1  0
 11 12  2  0
 11 13  1  0
 13 14  1  0
 13 38  1  0
 14 15  2  0
 15 16  1  0
 16 17  2  0
 17 18  1  0
 17 19  1  0
 19 20  2  0
 19 21  1  0
 20 14  1  0
 21 22  2  0
 22 23  1  0
 23 24  2  0
 24 25  1  0
 25 26  2  0
 26 27  1  0
 26 33  1  0
 27 28  1  0
 27 37  1  0
 28 29  2  0
 28 30  1  0
 30 31  1  0
 31 32  1  0
 32 30  1  0
 33 34  2  0
 34 35  1  0
 35 24  1  0
 35 36  2  0
 36 21  1  0
M  END
> <CMPD_CHEMBLID>
CHEMBL3685177

> <STANDARD_TYPE>
Ki

> <RELATION>
=

> <STANDARD_VALUE>
0.1

> <STANDARD_UNITS>
nM

> <Molecular_Weight>
478.5848

$$$$

  SciTegic11272012012D

 29 32  0  0  0  0            999 V2000
    2.1456    0.2461    0.0000 C   0  0
    2.1446   -0.4139    0.0000 C   0  0
    2.8584   -0.8275    0.0000 C   0  0
    2.8570   -1.6525    0.0000 C   0  0
    2.1419   -2.0639    0.0000 N   0  0
    1.4281   -1.6503    0.0000 C   0  0
    1.4293   -0.8252    0.0000 C   0  0
    0.7145   -0.4125    0.0000 C   0  0
    0.7145    0.4125    0.0000 C   0  0
    0.0000    0.8250    0.0000 C   0  0
   -0.7145    0.4125    0.0000 C   0  0
   -1.4290    0.8250    0.0000 C   0  0
   -2.1435    0.4125    0.0000 C   0  0
   -2.8592    0.8238    0.0000 N   0  0
   -3.5735    0.4100    0.0000 C   0  0
   -3.5723   -0.2500    0.0000 O   0  0
   -4.2892    0.8213    0.0000 C   0  0
   -5.0707    0.7961    0.0000 C   0  0
   -4.6582    1.5106    0.0000 C   0  0
   -2.1435   -0.4125    0.0000 N   0  0
   -1.4290   -0.8250    0.0000 C   0  0
   -0.7145   -0.4125    0.0000 C   0  0
    0.0000   -0.8250    0.0000 C   0  0
    3.5713   -2.0664    0.0000 C   0  0
    3.5700   -2.7264    0.0000 C   0  0
    4.1422   -2.3976    0.0000 C   0  0
    4.2871   -1.6553    0.0000 O   0  0
    4.7629   -1.9310    0.0000 H   0  0
   -2.8602    1.3738    0.0000 H   0  0
  1  2  1  0
  2  3  2  0
  3  4  1  0
  4  5  2  0
  4 24  1  0
  5  6  1  0
  6  7  2  0
  7  2  1  0
  7  8  1  0
  8  9  2  0
  9 10  1  0
 10 11  2  0
 11 12  1  0
 12 13  2  0
 13 14  1  0
 13 20  1  0
 14 15  1  0
 14 29  1  0
 15 16  2  0
 15 17  1  0
 17 18  1  0
 18 19  1  0
 19 17  1  0
 20 21  2  0
 21 22  1  0
 22 11  1  0
 22 23  2  0
 23  8  1  0
 24 25  1  0
 24 26  1  0
 24 27  1  0
 27 28  1  0
M  END
> <CMPD_CHEMBLID>
CHEMBL3689544

> <STANDARD_TYPE>
Ki

> <RELATION>
=

> <STANDARD_VALUE>
0.1

> <STANDARD_UNITS>
nM

> <Molecular_Weight>
361.43692

$$$$

  SciTegic11272012012D

 27 30  0  0  0  0            999 V2000
    2.1455    0.2461    0.0000 C   0  0
    2.1445   -0.4139    0.0000 C   0  0
    2.8583   -0.8275    0.0000 C   0  0
    2.8570   -1.6525    0.0000 C   0  0
    2.1419   -2.0639    0.0000 C   0  0
    2.1388   -2.8893    0.0000 C   0  0
    1.4227   -3.2999    0.0000 O   0  0
    1.4281   -1.6502    0.0000 C   0  0
    1.4293   -0.8252    0.0000 C   0  0
    0.7144   -0.4125    0.0000 C   0  0
    0.7144    0.4125    0.0000 C   0  0
    0.0000    0.8250    0.0000 C   0  0
    0.0000    1.6500    0.0000 C   0  0
   -0.7145    2.0625    0.0000 N   0  0
   -1.4290    1.6500    0.0000 C   0  0
   -2.1447    2.0612    0.0000 N   0  0
   -2.8590    1.6475    0.0000 C   0  0
   -2.8578    0.9875    0.0000 O   0  0
   -3.5747    2.0588    0.0000 C   0  0
   -4.3561    2.0337    0.0000 C   0  0
   -3.9436    2.7481    0.0000 C   0  0
   -1.4290    0.8250    0.0000 C   0  0
   -0.7144    0.4125    0.0000 C   0  0
   -0.7144   -0.4125    0.0000 C   0  0
    0.0000   -0.8250    0.0000 N   0  0
   -2.1457    2.6112    0.0000 H   0  0
    1.4208   -3.8499    0.0000 H   0  0
  1  2  1  0
  2  3  2  0
  3  4  1  0
  4  5  2  0
  5  6  1  0
  5  8  1  0
  6  7  1  0
  7 27  1  0
  8  9  2  0
  9  2  1  0
  9 10  1  0
 10 11  2  0
 11 12  1  0
 12 13  2  0
 13 14  1  0
 14 15  2  0
 15 16  1  0
 15 22  1  0
 16 17  1  0
 16 26  1  0
 17 18  2  0
 17 19  1  0
 19 20  1  0
 20 21  1  0
 21 19  1  0
 22 23  2  0
 23 12  1  0
 23 24  1  0
 24 25  2  0
 25 10  1  0
M  END
> <CMPD_CHEMBLID>
CHEMBL3689670

> <STANDARD_TYPE>
Ki

> <RELATION>
=

> <STANDARD_VALUE>
0.1

> <STANDARD_UNITS>
nM

> <Molecular_Weight>
333.38376

$$$$

  SciTegic11272012012D

 25 28  0  0  0  0            999 V2000
    2.1456    0.2461    0.0000 C   0  0
    2.1445   -0.4139    0.0000 C   0  0
    2.8583   -0.8275    0.0000 C   0  0
    2.8570   -1.6525    0.0000 C   0  0
    2.1419   -2.0639    0.0000 C   0  0
    2.1408   -2.7239    0.0000 F   0  0
    1.4281   -1.6502    0.0000 C   0  0
    1.4293   -0.8252    0.0000 C   0  0
    0.7145   -0.4125    0.0000 C   0  0
    0.7145    0.4125    0.0000 C   0  0
    0.0000    0.8250    0.0000 C   0  0
   -0.7145    0.4125    0.0000 C   0  0
   -1.4290    0.8250    0.0000 C   0  0
   -2.1434    0.4125    0.0000 C   0  0
   -2.8592    0.8237    0.0000 N   0  0
   -3.5735    0.4100    0.0000 C   0  0
   -3.5723   -0.2500    0.0000 O   0  0
   -4.2892    0.8213    0.0000 C   0  0
   -5.0706    0.7961    0.0000 C   0  0
   -4.6581    1.5106    0.0000 C   0  0
   -2.1434   -0.4125    0.0000 N   0  0
   -1.4290   -0.8250    0.0000 C   0  0
   -0.7145   -0.4125    0.0000 C   0  0
    0.0000   -0.8250    0.0000 C   0  0
   -2.8601    1.3738    0.0000 H   0  0
  1  2  1  0
  2  3  2  0
  3  4  1  0
  4  5  2  0
  5  6  1  0
  5  7  1  0
  7  8  2  0
  8  2  1  0
  8  9  1  0
  9 10  2  0
 10 11  1  0
 11 12  2  0
 12 13  1  0
 13 14  2  0
 14 15  1  0
 14 21  1  0
 15 16  1  0
 15 25  1  0
 16 17  2  0
 16 18  1  0
 18 19  1  0
 19 20  1  0
 20 18  1  0
 21 22  2  0
 22 23  1  0
 23 12  1  0
 23 24  2  0
 24  9  1  0
M  END
> <CMPD_CHEMBLID>
CHEMBL3689700

> <STANDARD_TYPE>
Ki

> <RELATION>
=

> <STANDARD_VALUE>
0.116

> <STANDARD_UNITS>
nM

> <Molecular_Weight>
320.36018

$$$$

  SciTegic11272012012D

 41 45  0  0  0  0            999 V2000
    7.8485    4.3779    0.0000 C   0  0
    7.8508    3.7179    0.0000 N   0  0
    8.5667    3.3079    0.0000 C   0  0
    8.5696    2.4829    0.0000 C   0  0
    7.8566    2.0679    0.0000 N   0  0
    7.8578    1.2424    0.0000 C   0  0
    7.1438    0.8282    0.0000 C   0  0
    6.4293    1.2407    0.0000 C   0  0
    5.7149    0.8282    0.0000 C   0  0
    5.7148    0.0032    0.0000 C   0  0
    5.0008   -0.4110    0.0000 N   0  0
    5.0020   -1.2364    0.0000 C   0  0
    5.5742   -1.5655    0.0000 O   0  0
    4.2880   -1.6507    0.0000 C   0  0
    4.2880   -2.4756    0.0000 C   0  0
    3.5735   -2.8881    0.0000 C   0  0
    2.8590   -2.4756    0.0000 C   0  0
    2.2875   -2.8056    0.0000 C   0  0
    2.8590   -1.6507    0.0000 C   0  0
    3.5735   -1.2382    0.0000 C   0  0
    2.1442   -1.2379    0.0000 C   0  0
    1.4293   -0.8252    0.0000 C   0  0
    0.7144   -0.4125    0.0000 C   0  0
    0.7144    0.4125    0.0000 C   0  0
    0.0000    0.8250    0.0000 N   0  0
   -0.7144    0.4125    0.0000 C   0  0
   -1.4986    0.6674    0.0000 N   0  0
   -1.9836    0.0000    0.0000 N   0  0
   -1.4986   -0.6674    0.0000 C   0  0
   -0.7144   -0.4125    0.0000 C   0  0
    0.0000   -0.8250    0.0000 C   0  0
    6.4294   -0.4093    0.0000 C   0  0
    7.1438    0.0032    0.0000 C   0  0
    7.8587   -0.4095    0.0000 C   0  0
    7.8591   -1.0695    0.0000 F   0  0
    8.4301   -0.0793    0.0000 F   0  0
    8.4304   -0.7392    0.0000 F   0  0
    7.1407    2.4780    0.0000 C   0  0
    7.1378    3.3030    0.0000 C   0  0
   -1.6685    1.1905    0.0000 H   0  0
    4.5241   -0.1368    0.0000 H   0  0
  1  2  1  0
  2  3  1  0
  3  4  1  0
  4  5  1  0
  5  6  1  0
  5 38  1  0
  6  7  1  0
  7  8  2  0
  8  9  1  0
  9 10  2  0
 10 11  1  0
 10 32  1  0
 11 12  1  0
 11 41  1  0
 12 13  2  0
 12 14  1  0
 14 15  2  0
 15 16  1  0
 16 17  2  0
 17 18  1  0
 17 19  1  0
 19 20  2  0
 19 21  1  0
 20 14  1  0
 21 22  3  0
 22 23  1  0
 23 24  2  0
 24 25  1  0
 25 26  2  0
 26 27  1  0
 27 28  1  0
 27 40  1  0
 28 29  2  0
 29 30  1  0
 30 26  1  0
 30 31  2  0
 31 23  1  0
 32 33  2  0
 33  7  1  0
 33 34  1  0
 34 35  1  0
 34 36  1  0
 34 37  1  0
 38 39  1  0
 39  2  1  0
M  END
> <CMPD_CHEMBLID>
CHEMBL2316582

> <STANDARD_TYPE>
IC50

> <RELATION>
=

> <STANDARD_VALUE>
0.15

> <STANDARD_UNITS>
nM

> <Molecular_Weight>
532.55949

$$$$

  SciTegic11272012012D

 28 32  0  0  0  0            999 V2000
    2.1409   -2.7239    0.0000 F   0  0
    2.1419   -2.0639    0.0000 C   0  0
    1.4281   -1.6503    0.0000 C   0  0
    1.4293   -0.8252    0.0000 C   0  0
    0.7145   -0.4125    0.0000 C   0  0
    0.7145    0.4125    0.0000 C   0  0
    0.0000    0.8250    0.0000 C   0  0
   -0.7145    0.4125    0.0000 C   0  0
   -1.4290    0.8250    0.0000 C   0  0
   -2.1435    0.4125    0.0000 C   0  0
   -2.8592    0.8238    0.0000 N   0  0
   -3.5735    0.4100    0.0000 C   0  0
   -3.5723   -0.2500    0.0000 O   0  0
   -4.2892    0.8213    0.0000 C   0  0
   -5.0707    0.7961    0.0000 C   0  0
   -4.6582    1.5106    0.0000 C   0  0
   -2.1435   -0.4125    0.0000 N   0  0
   -1.4290   -0.8250    0.0000 C   0  0
   -0.7145   -0.4125    0.0000 C   0  0
    0.0000   -0.8250    0.0000 C   0  0
    2.1446   -0.4139    0.0000 C   0  0
    2.3171    0.3924    0.0000 C   0  0
    3.1377    0.4774    0.0000 N   0  0
    3.4721   -0.2768    0.0000 N   0  0
    2.8584   -0.8275    0.0000 C   0  0
    2.8570   -1.6525    0.0000 C   0  0
    4.0099   -0.3921    0.0000 H   0  0
   -2.8602    1.3738    0.0000 H   0  0
  1  2  1  0
  2  3  2  0
  3  4  1  0
  4  5  1  0
  4 21  2  0
  5  6  2  0
  6  7  1  0
  7  8  2  0
  8  9  1  0
  9 10  2  0
 10 11  1  0
 10 17  1  0
 11 12  1  0
 11 28  1  0
 12 13  2  0
 12 14  1  0
 14 15  1  0
 15 16  1  0
 16 14  1  0
 17 18  2  0
 18 19  1  0
 19  8  1  0
 19 20  2  0
 20  5  1  0
 21 22  1  0
 22 23  2  0
 23 24  1  0
 24 25  1  0
 24 27  1  0
 25 21  1  0
 25 26  2  0
 26  2  1  0
M  END
> <CMPD_CHEMBLID>
CHEMBL3689720

> <STANDARD_TYPE>
Ki

> <RELATION>
=

> <STANDARD_VALUE>
0.158

> <STANDARD_UNITS>
nM

> <Molecular_Weight>
346.3577

$$$$

  SciTegic11272012012D

 25 28  0  0  0  0            999 V2000
    0.8560   -1.9794    0.0000 C   0  0
    1.4281   -1.6502    0.0000 C   0  0
    2.1419   -2.0639    0.0000 C   0  0
    2.8570   -1.6525    0.0000 C   0  0
    2.8583   -0.8275    0.0000 C   0  0
    2.1445   -0.4139    0.0000 C   0  0
    2.1456    0.2461    0.0000 Cl  0  0
    1.4293   -0.8252    0.0000 C   0  0
    0.7145   -0.4125    0.0000 C   0  0
    0.7145    0.4125    0.0000 C   0  0
    0.0000    0.8250    0.0000 C   0  0
   -0.7145    0.4125    0.0000 C   0  0
   -1.4290    0.8250    0.0000 C   0  0
   -2.1434    0.4125    0.0000 C   0  0
   -2.8592    0.8237    0.0000 N   0  0
   -3.5735    0.4100    0.0000 C   0  0
   -3.5723   -0.2500    0.0000 O   0  0
   -4.2892    0.8213    0.0000 C   0  0
   -5.0706    0.7961    0.0000 C   0  0
   -4.6581    1.5106    0.0000 C   0  0
   -2.1434   -0.4125    0.0000 N   0  0
   -1.4290   -0.8250    0.0000 C   0  0
   -0.7145   -0.4125    0.0000 C   0  0
    0.0000   -0.8250    0.0000 C   0  0
   -2.8601    1.3738    0.0000 H   0  0
  1  2  1  0
  2  3  2  0
  3  4  1  0
  4  5  2  0
  5  6  1  0
  6  7  1  0
  6  8  2  0
  8  2  1  0
  8  9  1  0
  9 10  2  0
 10 11  1  0
 11 12  2  0
 12 13  1  0
 13 14  2  0
 14 15  1  0
 14 21  1  0
 15 16  1  0
 15 25  1  0
 16 17  2  0
 16 18  1  0
 18 19  1  0
 19 20  1  0
 20 18  1  0
 21 22  2  0
 22 23  1  0
 23 12  1  0
 23 24  2  0
 24  9  1  0
M  END
> <CMPD_CHEMBLID>
CHEMBL3689697

> <STANDARD_TYPE>
Ki

> <RELATION>
=

> <STANDARD_VALUE>
0.158

> <STANDARD_UNITS>
nM

> <Molecular_Weight>
336.81478

$$$$

  SciTegic11272012012D

 26 29  0  0  0  0            999 V2000
    2.1408   -2.7239    0.0000 F   0  0
    2.1419   -2.0639    0.0000 C   0  0
    2.8570   -1.6525    0.0000 C   0  0
    2.8583   -0.8275    0.0000 C   0  0
    2.1445   -0.4139    0.0000 C   0  0
    2.1456    0.2461    0.0000 F   0  0
    1.4293   -0.8252    0.0000 C   0  0
    1.4281   -1.6502    0.0000 C   0  0
    0.8560   -1.9794    0.0000 Cl  0  0
    0.7145   -0.4125    0.0000 C   0  0
    0.7145    0.4125    0.0000 C   0  0
    0.0000    0.8250    0.0000 C   0  0
   -0.7145    0.4125    0.0000 C   0  0
   -1.4290    0.8250    0.0000 C   0  0
   -2.1434    0.4125    0.0000 C   0  0
   -2.8592    0.8237    0.0000 N   0  0
   -3.5735    0.4100    0.0000 C   0  0
   -3.5723   -0.2500    0.0000 O   0  0
   -4.2892    0.8213    0.0000 C   0  0
   -5.0706    0.7961    0.0000 C   0  0
   -4.6581    1.5106    0.0000 C   0  0
   -2.1434   -0.4125    0.0000 N   0  0
   -1.4290   -0.8250    0.0000 C   0  0
   -0.7145   -0.4125    0.0000 C   0  0
    0.0000   -0.8250    0.0000 C   0  0
   -2.8601    1.3738    0.0000 H   0  0
  1  2  1  0
  2  3  2  0
  3  4  1  0
  4  5  2  0
  5  6  1  0
  5  7  1  0
  7  8  2  0
  7 10  1  0
  8  2  1  0
  8  9  1  0
 10 11  2  0
 11 12  1  0
 12 13  2  0
 13 14  1  0
 14 15  2  0
 15 16  1  0
 15 22  1  0
 16 17  1  0
 16 26  1  0
 17 18  2  0
 17 19  1  0
 19 20  1  0
 20 21  1  0
 21 19  1  0
 22 23  2  0
 23 24  1  0
 24 13  1  0
 24 25  2  0
 25 10  1  0
M  END
> <CMPD_CHEMBLID>
CHEMBL3689695

> <STANDARD_TYPE>
Ki

> <RELATION>
=

> <STANDARD_VALUE>
0.164

> <STANDARD_UNITS>
nM

> <Molecular_Weight>
358.76913

$$$$

  SciTegic11272012012D

 25 28  0  0  0  0            999 V2000
    2.1456    0.2461    0.0000 C   0  0
    2.1446   -0.4139    0.0000 C   0  0
    2.8584   -0.8275    0.0000 C   0  0
    2.8570   -1.6525    0.0000 C   0  0
    2.1419   -2.0639    0.0000 N   0  3
    2.1409   -2.7239    0.0000 O   0  5
    1.4281   -1.6503    0.0000 C   0  0
    1.4293   -0.8252    0.0000 C   0  0
    0.7145   -0.4125    0.0000 C   0  0
    0.7145    0.4125    0.0000 C   0  0
    0.0000    0.8250    0.0000 C   0  0
   -0.7145    0.4125    0.0000 C   0  0
   -1.4290    0.8250    0.0000 C   0  0
   -2.1435    0.4125    0.0000 C   0  0
   -2.8592    0.8238    0.0000 N   0  0
   -3.5735    0.4100    0.0000 C   0  0
   -3.5723   -0.2500    0.0000 O   0  0
   -4.2892    0.8213    0.0000 C   0  0
   -5.0707    0.7961    0.0000 C   0  0
   -4.6582    1.5106    0.0000 C   0  0
   -2.1435   -0.4125    0.0000 N   0  0
   -1.4290   -0.8250    0.0000 C   0  0
   -0.7145   -0.4125    0.0000 C   0  0
    0.0000   -0.8250    0.0000 C   0  0
   -2.8602    1.3738    0.0000 H   0  0
  1  2  1  0
  2  3  2  0
  3  4  1  0
  4  5  2  0
  5  6  1  0
  5  7  1  0
  7  8  2  0
  8  2  1  0
  8  9  1  0
  9 10  2  0
 10 11  1  0
 11 12  2  0
 12 13  1  0
 13 14  2  0
 14 15  1  0
 14 21  1  0
 15 16  1  0
 15 25  1  0
 16 17  2  0
 16 18  1  0
 18 19  1  0
 19 20  1  0
 20 18  1  0
 21 22  2  0
 22 23  1  0
 23 12  1  0
 23 24  2  0
 24  9  1  0
M  CHG  2   5   1   6  -1
M  END
> <CMPD_CHEMBLID>
CHEMBL3689743

> <STANDARD_TYPE>
Ki

> <RELATION>
=

> <STANDARD_VALUE>
0.167

> <STANDARD_UNITS>
nM

> <Molecular_Weight>
319.35718

$$$$

  SciTegic11272012012D

 26 29  0  0  0  0            999 V2000
    2.1455    0.2461    0.0000 C   0  0
    2.1445   -0.4139    0.0000 C   0  0
    2.8583   -0.8275    0.0000 C   0  0
    3.4304   -0.4984    0.0000 F   0  0
    2.8570   -1.6525    0.0000 C   0  0
    2.1419   -2.0639    0.0000 N   0  0
    1.4281   -1.6502    0.0000 C   0  0
    1.4293   -0.8252    0.0000 C   0  0
    0.7144   -0.4125    0.0000 C   0  0
    0.7144    0.4125    0.0000 C   0  0
    0.0000    0.8250    0.0000 C   0  0
    0.0000    1.6500    0.0000 C   0  0
   -0.7145    2.0625    0.0000 N   0  0
   -1.4290    1.6500    0.0000 C   0  0
   -2.1447    2.0612    0.0000 N   0  0
   -2.8590    1.6475    0.0000 C   0  0
   -2.8578    0.9875    0.0000 O   0  0
   -3.5747    2.0588    0.0000 C   0  0
   -3.9436    2.7481    0.0000 C   0  0
   -4.3561    2.0337    0.0000 C   0  0
   -4.9223    1.6946    0.0000 F   0  0
   -1.4290    0.8250    0.0000 C   0  0
   -0.7144    0.4125    0.0000 C   0  0
   -0.7144   -0.4125    0.0000 C   0  0
    0.0000   -0.8250    0.0000 N   0  0
   -2.1457    2.6112    0.0000 H   0  0
  1  2  1  0
  2  3  2  0
  3  4  1  0
  3  5  1  0
  5  6  2  0
  6  7  1  0
  7  8  2  0
  8  2  1  0
  8  9  1  0
  9 10  2  0
 10 11  1  0
 11 12  2  0
 12 13  1  0
 13 14  2  0
 14 15  1  0
 14 22  1  0
 15 16  1  0
 15 26  1  0
 16 17  2  0
 16 18  1  0
 18 19  1  0
 19 20  1  0
 20 18  1  0
 20 21  1  0
 22 23  2  0
 23 11  1  0
 23 24  1  0
 24 25  2  0
 25  9  1  0
M  END
> <CMPD_CHEMBLID>
CHEMBL3689718

> <STANDARD_TYPE>
Ki

> <RELATION>
=

> <STANDARD_VALUE>
0.168

> <STANDARD_UNITS>
nM

> <Molecular_Weight>
340.32677

$$$$

  SciTegic11272012012D

 36 39  0  0  0  0            999 V2000
    1.2861   -0.7425    0.0000 C   0  0
    0.7145   -0.4125    0.0000 C   0  0
    0.7145    0.4125    0.0000 N   0  0
    0.0000    0.8250    0.0000 C   0  0
   -0.0017    1.6505    0.0000 N   0  0
   -0.7172    2.0622    0.0000 C   0  0
   -0.7959    2.8764    0.0000 N   0  0
   -1.6034    3.0451    0.0000 C   0  0
   -2.0134    2.3292    0.0000 C   0  0
   -1.4593    1.7180    0.0000 S   0  0
   -2.8325    2.2385    0.0000 C   0  0
   -3.2232    2.7704    0.0000 O   0  0
   -3.1645    1.4828    0.0000 N   0  0
   -3.9850    1.3919    0.0000 C   0  0
   -4.3179    0.6371    0.0000 C   0  0
   -3.9281    0.1044    0.0000 C   0  0
   -5.1381    0.5479    0.0000 C   0  0
   -5.6254    1.2137    0.0000 C   0  0
   -5.2924    1.9685    0.0000 C   0  0
   -4.4723    2.0577    0.0000 C   0  0
   -4.2060    2.6615    0.0000 Cl  0  0
   -0.7145    0.4125    0.0000 C   0  0
   -0.7145   -0.4125    0.0000 C   0  0
    0.0000   -0.8250    0.0000 N   0  0
   -1.4293   -0.8252    0.0000 N   0  0
   -2.1445   -0.4139    0.0000 C   0  0
   -2.8583   -0.8275    0.0000 C   0  0
   -2.8570   -1.6526    0.0000 N   0  0
   -3.5704   -2.0679    0.0000 C   0  0
   -3.5679   -2.8933    0.0000 C   0  0
   -4.2813   -3.3087    0.0000 O   0  0
   -2.1419   -2.0639    0.0000 C   0  0
   -1.4280   -1.6502    0.0000 C   0  0
   -4.2796   -3.8587    0.0000 H   0  0
   -2.8389    1.0395    0.0000 H   0  0
    0.4741    1.9263    0.0000 H   0  0
  1  2  1  0
  2  3  2  0
  3  4  1  0
  4  5  1  0
  4 22  2  0
  5  6  1  0
  5 36  1  0
  6  7  2  0
  7  8  1  0
  8  9  2  0
  9 10  1  0
  9 11  1  0
 10  6  1  0
 11 12  2  0
 11 13  1  0
 13 14  1  0
 13 35  1  0
 14 15  2  0
 15 16  1  0
 15 17  1  0
 17 18  2  0
 18 19  1  0
 19 20  2  0
 20 14  1  0
 20 21  1  0
 22 23  1  0
 23 24  2  0
 23 25  1  0
 24  2  1  0
 25 26  1  0
 26 27  1  0
 27 28  1  0
 28 29  1  0
 28 32  1  0
 29 30  1  0
 30 31  1  0
 31 34  1  0
 32 33  1  0
 33 25  1  0
M  END
> <CMPD_CHEMBLID>
CHEMBL1421

> <STANDARD_TYPE>
IC50

> <RELATION>
=

> <STANDARD_VALUE>
0.17

> <STANDARD_UNITS>
nM

> <Molecular_Weight>
488.00554

$$$$

  SciTegic11272012012D

 40 44  0  0  0  0            999 V2000
    7.8485    4.3779    0.0000 C   0  0
    7.8508    3.7179    0.0000 N   0  0
    8.5667    3.3079    0.0000 C   0  0
    8.5696    2.4829    0.0000 C   0  0
    7.8566    2.0679    0.0000 N   0  0
    7.8578    1.2424    0.0000 C   0  0
    7.1438    0.8282    0.0000 C   0  0
    6.4293    1.2407    0.0000 C   0  0
    5.7149    0.8282    0.0000 C   0  0
    5.7148    0.0032    0.0000 C   0  0
    5.0008   -0.4110    0.0000 N   0  0
    5.0020   -1.2364    0.0000 C   0  0
    5.5742   -1.5655    0.0000 O   0  0
    4.2880   -1.6507    0.0000 C   0  0
    4.2880   -2.4756    0.0000 C   0  0
    3.5735   -2.8881    0.0000 C   0  0
    2.8590   -2.4756    0.0000 C   0  0
    2.8590   -1.6507    0.0000 C   0  0
    3.5735   -1.2382    0.0000 C   0  0
    2.1442   -1.2379    0.0000 C   0  0
    1.4293   -0.8252    0.0000 C   0  0
    0.7144   -0.4125    0.0000 C   0  0
    0.7144    0.4125    0.0000 C   0  0
    0.0000    0.8250    0.0000 N   0  0
   -0.7144    0.4125    0.0000 C   0  0
   -1.4986    0.6674    0.0000 N   0  0
   -1.9836    0.0000    0.0000 N   0  0
   -1.4986   -0.6674    0.0000 C   0  0
   -0.7144   -0.4125    0.0000 C   0  0
    0.0000   -0.8250    0.0000 C   0  0
    6.4294   -0.4093    0.0000 C   0  0
    7.1438    0.0032    0.0000 C   0  0
    7.8587   -0.4095    0.0000 C   0  0
    7.8591   -1.0695    0.0000 F   0  0
    8.4301   -0.0793    0.0000 F   0  0
    8.4304   -0.7392    0.0000 F   0  0
    7.1407    2.4780    0.0000 C   0  0
    7.1378    3.3030    0.0000 C   0  0
   -1.6685    1.1905    0.0000 H   0  0
    4.5241   -0.1368    0.0000 H   0  0
  1  2  1  0
  2  3  1  0
  3  4  1  0
  4  5  1  0
  5  6  1  0
  5 37  1  0
  6  7  1  0
  7  8  2  0
  8  9  1  0
  9 10  2  0
 10 11  1  0
 10 31  1  0
 11 12  1  0
 11 40  1  0
 12 13  2  0
 12 14  1  0
 14 15  2  0
 15 16  1  0
 16 17  2  0
 17 18  1  0
 18 19  2  0
 18 20  1  0
 19 14  1  0
 20 21  3  0
 21 22  1  0
 22 23  2  0
 23 24  1  0
 24 25  2  0
 25 26  1  0
 26 27  1  0
 26 39  1  0
 27 28  2  0
 28 29  1  0
 29 25  1  0
 29 30  2  0
 30 22  1  0
 31 32  2  0
 32  7  1  0
 32 33  1  0
 33 34  1  0
 33 35  1  0
 33 36  1  0
 37 38  1  0
 38  2  1  0
M  END
> <CMPD_CHEMBLID>
CHEMBL2316583

> <STANDARD_TYPE>
IC50

> <RELATION>
=

> <STANDARD_VALUE>
0.17

> <STANDARD_UNITS>
nM

> <Molecular_Weight>
518.53291

$$$$

  SciTegic11272012012D

 25 28  0  0  0  0            999 V2000
    0.8551   -1.9812    0.0000 O   0  0
    1.4273   -1.6521    0.0000 C   0  0
    1.4285   -0.8267    0.0000 N   0  0
    0.7144   -0.4125    0.0000 C   0  0
    0.7144    0.4125    0.0000 C   0  0
    0.0000    0.8250    0.0000 C   0  0
    0.0000    1.6500    0.0000 C   0  0
   -0.7145    2.0625    0.0000 C   0  0
   -1.4290    1.6500    0.0000 C   0  0
   -1.4290    0.8250    0.0000 C   0  0
   -0.7144    0.4125    0.0000 C   0  0
   -0.7144   -0.4125    0.0000 C   0  0
    0.0000   -0.8250    0.0000 N   0  0
   -2.1438    2.0627    0.0000 C   0  0
   -2.8576    1.6491    0.0000 C   0  0
   -3.5728    2.0605    0.0000 C   0  0
   -3.5741    2.8855    0.0000 C   0  0
   -2.8603    3.2991    0.0000 C   0  0
   -2.1452    2.8877    0.0000 C   0  0
   -1.4310    3.3016    0.0000 C   0  0
   -0.8599    3.6325    0.0000 N   0  0
    2.1413   -2.0663    0.0000 C   0  0
    2.5103   -2.7557    0.0000 C   0  0
    2.9228   -2.0412    0.0000 C   0  0
    1.9053   -0.5525    0.0000 H   0  0
  1  2  2  0
  2  3  1  0
  2 22  1  0
  3  4  1  0
  3 25  1  0
  4  5  2  0
  5  6  1  0
  6  7  2  0
  7  8  1  0
  8  9  2  0
  9 10  1  0
  9 14  1  0
 10 11  2  0
 11  6  1  0
 11 12  1  0
 12 13  2  0
 13  4  1  0
 14 15  2  0
 15 16  1  0
 16 17  2  0
 17 18  1  0
 18 19  2  0
 19 14  1  0
 19 20  1  0
 20 21  3  0
 22 23  1  0
 23 24  1  0
 24 22  1  0
M  END
> <CMPD_CHEMBLID>
CHEMBL3689706

> <STANDARD_TYPE>
Ki

> <RELATION>
=

> <STANDARD_VALUE>
0.173

> <STANDARD_UNITS>
nM

> <Molecular_Weight>
313.3526

$$$$

  SciTegic11272012012D

 25 28  0  0  0  0            999 V2000
    0.8560   -1.9794    0.0000 F   0  0
    1.4281   -1.6502    0.0000 C   0  0
    2.1419   -2.0639    0.0000 C   0  0
    2.8570   -1.6525    0.0000 C   0  0
    2.8583   -0.8275    0.0000 C   0  0
    2.1445   -0.4139    0.0000 C   0  0
    2.1456    0.2461    0.0000 F   0  0
    1.4293   -0.8252    0.0000 C   0  0
    0.7145   -0.4125    0.0000 C   0  0
    0.7145    0.4125    0.0000 C   0  0
    0.0000    0.8250    0.0000 C   0  0
   -0.7145    0.4125    0.0000 C   0  0
   -1.4290    0.8250    0.0000 C   0  0
   -2.1434    0.4125    0.0000 C   0  0
   -2.8592    0.8237    0.0000 N   0  0
   -3.5735    0.4100    0.0000 C   0  0
   -3.5723   -0.2500    0.0000 O   0  0
   -4.2892    0.8213    0.0000 C   0  0
   -5.0706    0.7961    0.0000 C   0  0
   -4.6581    1.5106    0.0000 C   0  0
   -2.1434   -0.4125    0.0000 N   0  0
   -1.4290   -0.8250    0.0000 C   0  0
   -0.7145   -0.4125    0.0000 C   0  0
    0.0000   -0.8250    0.0000 C   0  0
   -2.8601    1.3738    0.0000 H   0  0
  1  2  1  0
  2  3  2  0
  3  4  1  0
  4  5  2  0
  5  6  1  0
  6  7  1  0
  6  8  2  0
  8  2  1  0
  8  9  1  0
  9 10  2  0
 10 11  1  0
 11 12  2  0
 12 13  1  0
 13 14  2  0
 14 15  1  0
 14 21  1  0
 15 16  1  0
 15 25  1  0
 16 17  2  0
 16 18  1  0
 18 19  1  0
 19 20  1  0
 20 18  1  0
 21 22  2  0
 22 23  1  0
 23 12  1  0
 23 24  2  0
 24  9  1  0
M  END
> <CMPD_CHEMBLID>
CHEMBL3689699

> <STANDARD_TYPE>
Ki

> <RELATION>
=

> <STANDARD_VALUE>
0.175

> <STANDARD_UNITS>
nM

> <Molecular_Weight>
324.32407

$$$$

  SciTegic11272012012D

 28 31  0  0  0  0            999 V2000
    0.8560   -1.9794    0.0000 C   0  0
    1.4281   -1.6502    0.0000 C   0  0
    2.1419   -2.0639    0.0000 C   0  0
    2.8570   -1.6525    0.0000 C   0  0
    2.8583   -0.8275    0.0000 N   0  0
    2.1445   -0.4139    0.0000 C   0  0
    2.1476    0.4116    0.0000 C   0  0
    2.8637    0.8222    0.0000 O   0  0
    1.4293   -0.8252    0.0000 C   0  0
    0.7145   -0.4125    0.0000 C   0  0
    0.7145    0.4125    0.0000 C   0  0
    0.0000    0.8250    0.0000 C   0  0
   -0.7145    0.4125    0.0000 C   0  0
   -1.4290    0.8250    0.0000 C   0  0
   -2.1434    0.4125    0.0000 C   0  0
   -2.8592    0.8237    0.0000 N   0  0
   -3.5735    0.4100    0.0000 C   0  0
   -3.5723   -0.2500    0.0000 O   0  0
   -4.2892    0.8213    0.0000 C   0  0
   -4.6581    1.5106    0.0000 C   0  0
   -5.0706    0.7961    0.0000 C   0  0
   -5.6369    0.4571    0.0000 F   0  0
   -2.1434   -0.4125    0.0000 N   0  0
   -1.4290   -0.8250    0.0000 C   0  0
   -0.7145   -0.4125    0.0000 C   0  0
    0.0000   -0.8250    0.0000 C   0  0
   -2.8601    1.3738    0.0000 H   0  0
    2.8657    1.3722    0.0000 H   0  0
  1  2  1  0
  2  3  2  0
  3  4  1  0
  4  5  2  0
  5  6  1  0
  6  7  1  0
  6  9  2  0
  7  8  1  0
  8 28  1  0
  9  2  1  0
  9 10  1  0
 10 11  2  0
 11 12  1  0
 12 13  2  0
 13 14  1  0
 14 15  2  0
 15 16  1  0
 15 23  1  0
 16 17  1  0
 16 27  1  0
 17 18  2  0
 17 19  1  0
 19 20  1  0
 20 21  1  0
 21 19  1  0
 21 22  1  0
 23 24  2  0
 24 25  1  0
 25 13  1  0
 25 26  2  0
 26 10  1  0
M  END
> <CMPD_CHEMBLID>
CHEMBL3689746

> <STANDARD_TYPE>
Ki

> <RELATION>
=

> <STANDARD_VALUE>
0.193

> <STANDARD_UNITS>
nM

> <Molecular_Weight>
351.37422

$$$$

  SciTegic11272012012D

 27 30  0  0  0  0            999 V2000
    2.1388   -2.8893    0.0000 O   0  0
    2.1419   -2.0639    0.0000 C   0  0
    2.8570   -1.6525    0.0000 C   0  0
    2.8583   -0.8275    0.0000 C   0  0
    2.1445   -0.4139    0.0000 C   0  0
    2.1458    0.4116    0.0000 C   0  0
    2.1469    1.0716    0.0000 N   0  0
    1.4293   -0.8252    0.0000 C   0  0
    1.4281   -1.6502    0.0000 C   0  0
    0.7144   -0.4125    0.0000 C   0  0
    0.7144    0.4125    0.0000 C   0  0
    0.0000    0.8250    0.0000 C   0  0
   -0.7144    0.4125    0.0000 C   0  0
   -1.4290    0.8250    0.0000 C   0  0
   -2.1434    0.4125    0.0000 C   0  0
   -2.8591    0.8237    0.0000 N   0  0
   -3.5734    0.4100    0.0000 C   0  0
   -3.5722   -0.2500    0.0000 O   0  0
   -4.2891    0.8213    0.0000 C   0  0
   -5.0706    0.7961    0.0000 C   0  0
   -4.6581    1.5106    0.0000 C   0  0
   -2.1434   -0.4125    0.0000 N   0  0
   -1.4290   -0.8250    0.0000 C   0  0
   -0.7144   -0.4125    0.0000 C   0  0
    0.0000   -0.8250    0.0000 C   0  0
   -2.8601    1.3737    0.0000 H   0  0
    1.6617   -3.1629    0.0000 H   0  0
  1  2  1  0
  1 27  1  0
  2  3  2  0
  3  4  1  0
  4  5  2  0
  5  6  1  0
  5  8  1  0
  6  7  3  0
  8  9  2  0
  8 10  1  0
  9  2  1  0
 10 11  2  0
 11 12  1  0
 12 13  2  0
 13 14  1  0
 14 15  2  0
 15 16  1  0
 15 22  1  0
 16 17  1  0
 16 26  1  0
 17 18  2  0
 17 19  1  0
 19 20  1  0
 20 21  1  0
 21 19  1  0
 22 23  2  0
 23 24  1  0
 24 13  1  0
 24 25  2  0
 25 10  1  0
M  END
> <CMPD_CHEMBLID>
CHEMBL3685088

> <STANDARD_TYPE>
Ki

> <RELATION>
=

> <STANDARD_VALUE>
0.2

> <STANDARD_UNITS>
nM

> <Molecular_Weight>
329.352

$$$$

  SciTegic11272012012D

 34 38  0  0  0  0            999 V2000
    2.1455    0.2461    0.0000 C   0  0
    2.1445   -0.4139    0.0000 C   0  0
    2.8583   -0.8275    0.0000 C   0  0
    2.8570   -1.6525    0.0000 C   0  0
    2.1419   -2.0639    0.0000 C   0  0
    2.1388   -2.8893    0.0000 N   0  0
    1.4227   -3.2999    0.0000 C   0  0
    0.8523   -2.9680    0.0000 O   0  0
    1.4198   -4.1253    0.0000 C   0  0
    0.7046   -4.5367    0.0000 C   0  0
    0.7033   -5.3617    0.0000 O   0  0
    1.4171   -5.7754    0.0000 C   0  0
    2.1322   -5.3640    0.0000 C   0  0
    2.1336   -4.5390    0.0000 O   0  0
    1.4281   -1.6502    0.0000 C   0  0
    1.4293   -0.8252    0.0000 C   0  0
    0.7144   -0.4125    0.0000 C   0  0
    0.7144    0.4125    0.0000 C   0  0
    0.0000    0.8250    0.0000 C   0  0
   -0.7144    0.4125    0.0000 C   0  0
   -1.4290    0.8250    0.0000 C   0  0
   -2.1434    0.4125    0.0000 C   0  0
   -2.8591    0.8237    0.0000 N   0  0
   -3.5734    0.4100    0.0000 C   0  0
   -3.5722   -0.2500    0.0000 O   0  0
   -4.2891    0.8213    0.0000 C   0  0
   -5.0706    0.7961    0.0000 C   0  0
   -4.6581    1.5106    0.0000 C   0  0
   -2.1434   -0.4125    0.0000 N   0  0
   -1.4290   -0.8250    0.0000 C   0  0
   -0.7144   -0.4125    0.0000 C   0  0
    0.0000   -0.8250    0.0000 C   0  0
   -2.8601    1.3737    0.0000 H   0  0
    2.6143   -3.1659    0.0000 H   0  0
  1  2  1  0
  2  3  2  0
  3  4  1  0
  4  5  2  0
  5  6  1  0
  5 15  1  0
  6  7  1  0
  6 34  1  0
  7  8  2  0
  7  9  1  0
  9 10  1  0
 10 11  1  0
 11 12  1  0
 12 13  1  0
 13 14  1  0
 14  9  1  0
 15 16  2  0
 16  2  1  0
 16 17  1  0
 17 18  2  0
 18 19  1  0
 19 20  2  0
 20 21  1  0
 21 22  2  0
 22 23  1  0
 22 29  1  0
 23 24  1  0
 23 33  1  0
 24 25  2  0
 24 26  1  0
 26 27  1  0
 27 28  1  0
 28 26  1  0
 29 30  2  0
 30 31  1  0
 31 20  1  0
 31 32  2  0
 32 17  1  0
M  END
> <CMPD_CHEMBLID>
CHEMBL3689565

> <STANDARD_TYPE>
Ki

> <RELATION>
=

> <STANDARD_VALUE>
0.2

> <STANDARD_UNITS>
nM

> <Molecular_Weight>
431.4837

$$$$

  SciTegic11272012012D

 30 33  0  0  0  0            999 V2000
   -0.5785   -2.9632    0.0000 C   0  0
   -0.0086   -3.2960    0.0000 S   0  0
    0.7086   -2.8872    0.0000 C   0  0
    1.4216   -3.3022    0.0000 C   0  0
    2.1375   -2.8922    0.0000 C   0  0
    2.1403   -2.0672    0.0000 C   0  0
    1.4273   -1.6521    0.0000 C   0  0
    1.4285   -0.8267    0.0000 N   0  0
    0.7144   -0.4125    0.0000 C   0  0
    0.7144    0.4125    0.0000 N   0  0
    0.0000    0.8250    0.0000 C   0  0
   -0.7144    0.4125    0.0000 C   0  0
   -1.4289    0.8250    0.0000 C   0  0
   -2.1434    0.4125    0.0000 C   0  0
   -2.1434   -0.4125    0.0000 C   0  0
   -2.7149   -0.7425    0.0000 O   0  0
   -1.4289   -0.8250    0.0000 N   0  0
   -1.4289   -1.4850    0.0000 C   0  0
   -0.7144   -0.4125    0.0000 C   0  0
    0.0000   -0.8250    0.0000 N   0  0
   -2.8582    0.8252    0.0000 C   0  0
   -2.8596    1.6502    0.0000 C   0  0
   -2.2886    1.9811    0.0000 Cl  0  0
   -3.5747    2.0616    0.0000 C   0  0
   -4.2885    1.6480    0.0000 C   0  0
   -4.2872    0.8230    0.0000 C   0  0
   -3.5721    0.4116    0.0000 C   0  0
   -3.5711   -0.2484    0.0000 Cl  0  0
    0.7114   -2.0622    0.0000 C   0  0
    1.9053   -0.5525    0.0000 H   0  0
  1  2  1  0
  2  3  1  0
  3  4  2  0
  4  5  1  0
  5  6  2  0
  6  7  1  0
  7  8  1  0
  7 29  2  0
  8  9  1  0
  8 30  1  0
  9 10  2  0
 10 11  1  0
 11 12  2  0
 12 13  1  0
 13 14  2  0
 14 15  1  0
 14 21  1  0
 15 16  2  0
 15 17  1  0
 17 18  1  0
 17 19  1  0
 19 12  1  0
 19 20  2  0
 20  9  1  0
 21 22  2  0
 22 23  1  0
 22 24  1  0
 24 25  2  0
 25 26  1  0
 26 27  2  0
 27 21  1  0
 27 28  1  0
 29  3  1  0
M  END
> <CMPD_CHEMBLID>
CHEMBL386051

> <STANDARD_TYPE>
Ki

> <RELATION>
=

> <STANDARD_VALUE>
0.2

> <STANDARD_UNITS>
nM

> <Molecular_Weight>
443.34894

$$$$

  SciTegic11272012012D

 27 30  0  0  0  0            999 V2000
    1.4227   -3.2999    0.0000 O   0  0
    2.1388   -2.8893    0.0000 C   0  0
    2.1419   -2.0639    0.0000 C   0  0
    2.8570   -1.6525    0.0000 C   0  0
    2.8583   -0.8275    0.0000 C   0  0
    2.1445   -0.4139    0.0000 C   0  0
    2.1455    0.2461    0.0000 Cl  0  0
    1.4293   -0.8252    0.0000 C   0  0
    1.4281   -1.6502    0.0000 C   0  0
    0.7144   -0.4125    0.0000 C   0  0
    0.7144    0.4125    0.0000 C   0  0
    0.0000    0.8250    0.0000 C   0  0
   -0.7144    0.4125    0.0000 C   0  0
   -1.4290    0.8250    0.0000 C   0  0
   -2.1434    0.4125    0.0000 C   0  0
   -2.8591    0.8237    0.0000 N   0  0
   -3.5734    0.4100    0.0000 C   0  0
   -3.5722   -0.2500    0.0000 O   0  0
   -4.2891    0.8213    0.0000 C   0  0
   -5.0706    0.7961    0.0000 C   0  0
   -4.6581    1.5106    0.0000 C   0  0
   -2.1434   -0.4125    0.0000 N   0  0
   -1.4290   -0.8250    0.0000 C   0  0
   -0.7144   -0.4125    0.0000 C   0  0
    0.0000   -0.8250    0.0000 C   0  0
   -2.8601    1.3737    0.0000 H   0  0
    1.4208   -3.8499    0.0000 H   0  0
  1  2  1  0
  1 27  1  0
  2  3  1  0
  3  4  2  0
  4  5  1  0
  5  6  2  0
  6  7  1  0
  6  8  1  0
  8  9  2  0
  8 10  1  0
  9  3  1  0
 10 11  2  0
 11 12  1  0
 12 13  2  0
 13 14  1  0
 14 15  2  0
 15 16  1  0
 15 22  1  0
 16 17  1  0
 16 26  1  0
 17 18  2  0
 17 19  1  0
 19 20  1  0
 20 21  1  0
 21 19  1  0
 22 23  2  0
 23 24  1  0
 24 13  1  0
 24 25  2  0
 25 10  1  0
M  END
> <CMPD_CHEMBLID>
CHEMBL3685162

> <STANDARD_TYPE>
Ki

> <RELATION>
=

> <STANDARD_VALUE>
0.2

> <STANDARD_UNITS>
nM

> <Molecular_Weight>
352.81418

$$$$

  SciTegic11272012012D

 36 40  0  0  0  0            999 V2000
    2.1456    0.2461    0.0000 C   0  0
    2.1446   -0.4139    0.0000 C   0  0
    2.8584   -0.8275    0.0000 C   0  0
    2.8570   -1.6525    0.0000 C   0  0
    2.1419   -2.0639    0.0000 C   0  0
    2.1389   -2.8894    0.0000 N   0  0
    1.4228   -3.3000    0.0000 C   0  0
    0.8523   -2.9681    0.0000 O   0  0
    1.4198   -4.1254    0.0000 N   0  0
    2.0865   -4.5994    0.0000 C   0  0
    1.8303   -5.3836    0.0000 C   0  0
    1.0053   -5.3823    0.0000 C   0  0
    0.7516   -4.5973    0.0000 C   0  0
   -0.0303   -4.3370    0.0000 C   0  0
   -0.6480   -4.8845    0.0000 O   0  0
    1.4281   -1.6503    0.0000 C   0  0
    1.4293   -0.8252    0.0000 C   0  0
    0.7145   -0.4125    0.0000 C   0  0
    0.7145    0.4125    0.0000 C   0  0
    0.0000    0.8250    0.0000 C   0  0
   -0.7145    0.4125    0.0000 C   0  0
   -1.4290    0.8250    0.0000 C   0  0
   -2.1435    0.4125    0.0000 C   0  0
   -2.8592    0.8238    0.0000 N   0  0
   -3.5735    0.4100    0.0000 C   0  0
   -3.5723   -0.2500    0.0000 O   0  0
   -4.2892    0.8213    0.0000 C   0  0
   -5.0707    0.7961    0.0000 C   0  0
   -4.6582    1.5106    0.0000 C   0  0
   -2.1435   -0.4125    0.0000 N   0  0
   -1.4290   -0.8250    0.0000 C   0  0
   -0.7145   -0.4125    0.0000 C   0  0
    0.0000   -0.8250    0.0000 C   0  0
   -2.8602    1.3738    0.0000 H   0  0
   -1.1699   -4.7108    0.0000 H   0  0
    2.6143   -3.1660    0.0000 H   0  0
  1  2  1  0
  2  3  2  0
  3  4  1  0
  4  5  2  0
  5  6  1  0
  5 16  1  0
  6  7  1  0
  6 36  1  0
  7  8  2  0
  7  9  1  0
  9 10  1  0
 10 11  1  0
 11 12  1  0
 12 13  1  0
 13  9  1  0
 13 14  1  0
 14 15  1  0
 15 35  1  0
 16 17  2  0
 17  2  1  0
 17 18  1  0
 18 19  2  0
 19 20  1  0
 20 21  2  0
 21 22  1  0
 22 23  2  0
 23 24  1  0
 23 30  1  0
 24 25  1  0
 24 34  1  0
 25 26  2  0
 25 27  1  0
 27 28  1  0
 28 29  1  0
 29 27  1  0
 30 31  2  0
 31 32  1  0
 32 21  1  0
 32 33  2  0
 33 18  1  0
M  END
> <CMPD_CHEMBLID>
CHEMBL3689602

> <STANDARD_TYPE>
Ki

> <RELATION>
=

> <STANDARD_VALUE>
0.2

> <STANDARD_UNITS>
nM

> <Molecular_Weight>
444.52552

$$$$

  SciTegic11272012012D

 40 44  0  0  0  0            999 V2000
    7.8485    4.3779    0.0000 C   0  0
    7.8508    3.7179    0.0000 N   0  0
    8.5667    3.3079    0.0000 C   0  0
    8.5696    2.4829    0.0000 C   0  0
    7.8566    2.0679    0.0000 N   0  0
    7.8578    1.2424    0.0000 C   0  0
    7.1438    0.8282    0.0000 C   0  0
    6.4293    1.2407    0.0000 C   0  0
    5.7148    0.8282    0.0000 C   0  0
    5.7148    0.0032    0.0000 C   0  0
    5.0008   -0.4110    0.0000 N   0  0
    5.0020   -1.2364    0.0000 C   0  0
    5.5741   -1.5655    0.0000 O   0  0
    4.2880   -1.6506    0.0000 C   0  0
    4.2880   -2.4756    0.0000 C   0  0
    3.5735   -2.8881    0.0000 C   0  0
    2.8590   -2.4756    0.0000 C   0  0
    2.2875   -2.8056    0.0000 C   0  0
    2.8590   -1.6506    0.0000 C   0  0
    3.5735   -1.2381    0.0000 C   0  0
    2.1442   -1.2379    0.0000 C   0  0
    1.4293   -0.8252    0.0000 C   0  0
    0.7144   -0.4125    0.0000 C   0  0
    0.7144    0.4125    0.0000 C   0  0
    0.0000    0.8250    0.0000 N   0  0
   -0.7144    0.4125    0.0000 C   0  0
   -0.7144   -0.4125    0.0000 C   0  0
   -1.3273   -0.9641    0.0000 N   0  0
   -0.9918   -1.7178    0.0000 C   0  0
   -0.1713   -1.6316    0.0000 C   0  0
    0.0000   -0.8250    0.0000 N   0  0
    6.4293   -0.4093    0.0000 C   0  0
    7.1438    0.0032    0.0000 C   0  0
    7.8587   -0.4095    0.0000 C   0  0
    7.8591   -1.0695    0.0000 F   0  0
    8.4301   -0.0793    0.0000 F   0  0
    8.4304   -0.7392    0.0000 F   0  0
    7.1406    2.4779    0.0000 C   0  0
    7.1378    3.3029    0.0000 C   0  0
    4.5240   -0.1368    0.0000 H   0  0
  1  2  1  0
  2  3  1  0
  3  4  1  0
  4  5  1  0
  5  6  1  0
  5 38  1  0
  6  7  1  0
  7  8  2  0
  8  9  1  0
  9 10  2  0
 10 11  1  0
 10 32  1  0
 11 12  1  0
 11 40  1  0
 12 13  2  0
 12 14  1  0
 14 15  2  0
 15 16  1  0
 16 17  2  0
 17 18  1  0
 17 19  1  0
 19 20  2  0
 19 21  1  0
 20 14  1  0
 21 22  3  0
 22 23  1  0
 23 24  2  0
 24 25  1  0
 25 26  2  0
 26 27  1  0
 27 28  2  0
 28 29  1  0
 29 30  2  0
 30 31  1  0
 31 23  1  0
 31 27  1  0
 32 33  2  0
 33  7  1  0
 33 34  1  0
 34 35  1  0
 34 36  1  0
 34 37  1  0
 38 39  1  0
 39  2  1  0
M  END
> <CMPD_CHEMBLID>
CHEMBL2324924

> <STANDARD_TYPE>
IC50

> <RELATION>
=

> <STANDARD_VALUE>
0.2

> <STANDARD_UNITS>
nM

> <Molecular_Weight>
532.55949

$$$$

  SciTegic11272012012D

 25 28  0  0  0  0            999 V2000
    2.8763   -1.8711    0.0000 O   0  0
    2.0931   -2.1274    0.0000 C   0  0
    1.8355   -2.9112    0.0000 C   0  0
    1.0105   -2.9083    0.0000 C   0  0
    0.7582   -2.1228    0.0000 C   0  0
    1.4273   -1.6522    0.0000 C   0  0
    1.4285   -0.8267    0.0000 O   0  0
    0.7145   -0.4125    0.0000 C   0  0
    0.7145    0.4125    0.0000 C   0  0
    0.0000    0.8250    0.0000 C   0  0
   -0.7145    0.4125    0.0000 C   0  0
   -1.4290    0.8250    0.0000 C   0  0
   -2.1435    0.4125    0.0000 C   0  0
   -2.8592    0.8238    0.0000 N   0  0
   -3.5735    0.4100    0.0000 C   0  0
   -3.5723   -0.2500    0.0000 O   0  0
   -4.2892    0.8213    0.0000 C   0  0
   -5.0707    0.7961    0.0000 C   0  0
   -4.6582    1.5106    0.0000 C   0  0
   -2.1435   -0.4125    0.0000 N   0  0
   -1.4290   -0.8250    0.0000 C   0  0
   -0.7145   -0.4125    0.0000 C   0  0
    0.0000   -0.8250    0.0000 C   0  0
   -2.8602    1.3738    0.0000 H   0  0
    3.2860   -2.2380    0.0000 H   0  0
  1  2  1  0
  1 25  1  0
  2  3  1  0
  3  4  1  0
  4  5  1  0
  5  6  1  0
  6  2  1  0
  6  7  1  0
  7  8  1  0
  8  9  2  0
  9 10  1  0
 10 11  2  0
 11 12  1  0
 12 13  2  0
 13 14  1  0
 13 20  1  0
 14 15  1  0
 14 24  1  0
 15 16  2  0
 15 17  1  0
 17 18  1  0
 18 19  1  0
 19 17  1  0
 20 21  2  0
 21 22  1  0
 22 11  1  0
 22 23  2  0
 23  8  1  0
M  END
> <CMPD_CHEMBLID>
CHEMBL3689588

> <STANDARD_TYPE>
Ki

> <RELATION>
=

> <STANDARD_VALUE>
0.2

> <STANDARD_UNITS>
nM

> <Molecular_Weight>
312.363

$$$$

  SciTegic11272012012D

 28 31  0  0  0  0            999 V2000
    2.1455    0.2461    0.0000 C   0  0
    2.1445   -0.4139    0.0000 C   0  0
    2.8583   -0.8275    0.0000 C   0  0
    2.8570   -1.6525    0.0000 C   0  0
    2.1419   -2.0639    0.0000 N   0  0
    1.4281   -1.6502    0.0000 C   0  0
    1.4293   -0.8252    0.0000 C   0  0
    0.7144   -0.4125    0.0000 C   0  0
    0.7144    0.4125    0.0000 C   0  0
    0.0000    0.8250    0.0000 C   0  0
   -0.7144    0.4125    0.0000 C   0  0
   -1.4290    0.8250    0.0000 C   0  0
   -2.1434    0.4125    0.0000 C   0  0
   -2.8591    0.8237    0.0000 N   0  0
   -3.5734    0.4100    0.0000 C   0  0
   -4.2893    0.8200    0.0000 C   0  0
   -5.0024    0.4050    0.0000 C   0  0
   -4.9995   -0.4200    0.0000 C   0  0
   -4.2836   -0.8300    0.0000 C   0  0
   -4.2791   -1.6554    0.0000 C   0  0
   -3.5622   -2.0647    0.0000 O   0  0
   -3.5706   -0.4150    0.0000 N   0  0
   -2.1434   -0.4125    0.0000 N   0  0
   -1.4290   -0.8250    0.0000 C   0  0
   -0.7144   -0.4125    0.0000 C   0  0
    0.0000   -0.8250    0.0000 C   0  0
   -3.5592   -2.6147    0.0000 H   0  0
   -2.8601    1.3737    0.0000 H   0  0
  1  2  1  0
  2  3  2  0
  3  4  1  0
  4  5  2  0
  5  6  1  0
  6  7  2  0
  7  2  1  0
  7  8  1  0
  8  9  2  0
  9 10  1  0
 10 11  2  0
 11 12  1  0
 12 13  2  0
 13 14  1  0
 13 23  1  0
 14 15  1  0
 14 28  1  0
 15 16  2  0
 16 17  1  0
 17 18  2  0
 18 19  1  0
 19 20  1  0
 19 22  2  0
 20 21  1  0
 21 27  1  0
 22 15  1  0
 23 24  2  0
 24 25  1  0
 25 11  1  0
 25 26  2  0
 26  8  1  0
M  END
> <CMPD_CHEMBLID>
CHEMBL3685187

> <STANDARD_TYPE>
Ki

> <RELATION>
=

> <STANDARD_VALUE>
0.2

> <STANDARD_UNITS>
nM

> <Molecular_Weight>
342.39382

$$$$

  SciTegic11272012012D

 27 30  0  0  0  0            999 V2000
    2.1456    0.2461    0.0000 C   0  0
    2.1445   -0.4139    0.0000 C   0  0
    2.8583   -0.8275    0.0000 C   0  0
    3.5747   -0.4174    0.0000 C   0  0
    4.2883   -0.8323    0.0000 O   0  0
    2.8570   -1.6525    0.0000 C   0  0
    2.1419   -2.0639    0.0000 N   0  0
    1.4281   -1.6502    0.0000 C   0  0
    1.4293   -0.8252    0.0000 C   0  0
    0.7145   -0.4125    0.0000 C   0  0
    0.7145    0.4125    0.0000 C   0  0
    0.0000    0.8250    0.0000 C   0  0
   -0.7145    0.4125    0.0000 C   0  0
   -1.4290    0.8250    0.0000 C   0  0
   -2.1434    0.4125    0.0000 C   0  0
   -2.8591    0.8237    0.0000 N   0  0
   -3.5734    0.4100    0.0000 C   0  0
   -3.5723   -0.2500    0.0000 O   0  0
   -4.2891    0.8213    0.0000 C   0  0
   -5.0706    0.7961    0.0000 C   0  0
   -4.6581    1.5106    0.0000 C   0  0
   -2.1434   -0.4125    0.0000 N   0  0
   -1.4290   -0.8250    0.0000 C   0  0
   -0.7145   -0.4125    0.0000 C   0  0
    0.0000   -0.8250    0.0000 C   0  0
   -2.8601    1.3737    0.0000 H   0  0
    4.7656   -0.5590    0.0000 H   0  0
  1  2  1  0
  2  3  2  0
  3  4  1  0
  3  6  1  0
  4  5  1  0
  5 27  1  0
  6  7  2  0
  7  8  1  0
  8  9  2  0
  9  2  1  0
  9 10  1  0
 10 11  2  0
 11 12  1  0
 12 13  2  0
 13 14  1  0
 14 15  2  0
 15 16  1  0
 15 22  1  0
 16 17  1  0
 16 26  1  0
 17 18  2  0
 17 19  1  0
 19 20  1  0
 20 21  1  0
 21 19  1  0
 22 23  2  0
 23 24  1  0
 24 13  1  0
 24 25  2  0
 25 10  1  0
M  END
> <CMPD_CHEMBLID>
CHEMBL3685184

> <STANDARD_TYPE>
Ki

> <RELATION>
=

> <STANDARD_VALUE>
0.2

> <STANDARD_UNITS>
nM

> <Molecular_Weight>
333.38376

$$$$

  SciTegic11272012012D

 30 33  0  0  0  0            999 V2000
    2.1455    0.2461    0.0000 C   0  0
    2.1445   -0.4139    0.0000 C   0  0
    2.8583   -0.8275    0.0000 C   0  0
    2.8570   -1.6525    0.0000 C   0  0
    2.1419   -2.0639    0.0000 C   0  0
    2.1408   -2.7239    0.0000 F   0  0
    1.4281   -1.6502    0.0000 C   0  0
    1.4293   -0.8252    0.0000 C   0  0
    0.7144   -0.4125    0.0000 C   0  0
    0.7144    0.4125    0.0000 C   0  0
    0.0000    0.8250    0.0000 C   0  0
    0.0000    1.6500    0.0000 C   0  0
   -0.7145    2.0625    0.0000 N   0  0
   -1.4290    1.6500    0.0000 C   0  0
   -2.1447    2.0612    0.0000 N   0  0
   -2.8590    1.6475    0.0000 C   0  0
   -2.8578    0.9875    0.0000 O   0  0
   -3.5747    2.0588    0.0000 C   0  0
   -4.3561    2.0337    0.0000 C   0  0
   -3.9436    2.7481    0.0000 C   0  0
   -1.4290    0.8250    0.0000 C   0  0
   -0.7144    0.4125    0.0000 C   0  0
   -0.7144   -0.4125    0.0000 C   0  0
    0.0000   -0.8250    0.0000 N   0  0
   -1.4293   -0.8252    0.0000 C   0  0
   -1.4291   -1.4852    0.0000 C   0  0
   -2.0007   -1.1555    0.0000 C   0  0
   -2.1444   -0.4129    0.0000 O   0  0
   -2.6207   -0.6879    0.0000 H   0  0
   -2.1457    2.6112    0.0000 H   0  0
  1  2  1  0
  2  3  2  0
  3  4  1  0
  4  5  2  0
  5  6  1  0
  5  7  1  0
  7  8  2  0
  8  2  1  0
  8  9  1  0
  9 10  2  0
 10 11  1  0
 11 12  2  0
 12 13  1  0
 13 14  2  0
 14 15  1  0
 14 21  1  0
 15 16  1  0
 15 30  1  0
 16 17  2  0
 16 18  1  0
 18 19  1  0
 19 20  1  0
 20 18  1  0
 21 22  2  0
 22 11  1  0
 22 23  1  0
 23 24  2  0
 23 25  1  0
 24  9  1  0
 25 26  1  0
 25 27  1  0
 25 28  1  0
 28 29  1  0
M  END
> <CMPD_CHEMBLID>
CHEMBL3689668

> <STANDARD_TYPE>
Ki

> <RELATION>
=

> <STANDARD_VALUE>
0.2

> <STANDARD_UNITS>
nM

> <Molecular_Weight>
379.42738

$$$$

  SciTegic11272012012D

 26 29  0  0  0  0            999 V2000
    2.1408   -2.7239    0.0000 F   0  0
    2.1419   -2.0639    0.0000 C   0  0
    2.8570   -1.6525    0.0000 C   0  0
    2.8583   -0.8275    0.0000 C   0  0
    2.1445   -0.4139    0.0000 C   0  0
    2.1458    0.4116    0.0000 C   0  0
    2.1469    1.0716    0.0000 N   0  0
    1.4293   -0.8252    0.0000 C   0  0
    1.4281   -1.6502    0.0000 C   0  0
    0.7144   -0.4125    0.0000 C   0  0
    0.7144    0.4125    0.0000 C   0  0
    0.0000    0.8250    0.0000 C   0  0
   -0.7144    0.4125    0.0000 C   0  0
   -1.4290    0.8250    0.0000 C   0  0
   -2.1434    0.4125    0.0000 C   0  0
   -2.8591    0.8237    0.0000 N   0  0
   -3.5734    0.4100    0.0000 C   0  0
   -3.5722   -0.2500    0.0000 O   0  0
   -4.2891    0.8213    0.0000 C   0  0
   -5.0706    0.7961    0.0000 C   0  0
   -4.6581    1.5106    0.0000 C   0  0
   -2.1434   -0.4125    0.0000 N   0  0
   -1.4290   -0.8250    0.0000 C   0  0
   -0.7144   -0.4125    0.0000 C   0  0
    0.0000   -0.8250    0.0000 C   0  0
   -2.8601    1.3737    0.0000 H   0  0
  1  2  1  0
  2  3  2  0
  3  4  1  0
  4  5  2  0
  5  6  1  0
  5  8  1  0
  6  7  3  0
  8  9  2  0
  8 10  1  0
  9  2  1  0
 10 11  2  0
 11 12  1  0
 12 13  2  0
 13 14  1  0
 14 15  2  0
 15 16  1  0
 15 22  1  0
 16 17  1  0
 16 26  1  0
 17 18  2  0
 17 19  1  0
 19 20  1  0
 20 21  1  0
 21 19  1  0
 22 23  2  0
 23 24  1  0
 24 13  1  0
 24 25  2  0
 25 10  1  0
M  END
> <CMPD_CHEMBLID>
CHEMBL3685066

> <STANDARD_TYPE>
Ki

> <RELATION>
=

> <STANDARD_VALUE>
0.2

> <STANDARD_UNITS>
nM

> <Molecular_Weight>
331.34306

$$$$

  SciTegic11272012012D

 26 29  0  0  0  0            999 V2000
    2.1456    0.2461    0.0000 C   0  0
    2.1445   -0.4139    0.0000 C   0  0
    2.8583   -0.8275    0.0000 C   0  0
    2.8570   -1.6525    0.0000 C   0  0
    2.1419   -2.0639    0.0000 C   0  0
    1.4281   -1.6502    0.0000 C   0  0
    1.4293   -0.8252    0.0000 C   0  0
    0.7145   -0.4125    0.0000 C   0  0
    0.7145    0.4125    0.0000 C   0  0
    0.0000    0.8250    0.0000 C   0  0
   -0.7145    0.4125    0.0000 C   0  0
   -1.4290    0.8250    0.0000 C   0  0
   -2.1434    0.4125    0.0000 C   0  0
   -2.8592    0.8237    0.0000 N   0  0
   -3.5735    0.4100    0.0000 C   0  0
   -3.5723   -0.2500    0.0000 O   0  0
   -4.2892    0.8213    0.0000 C   0  0
   -5.0706    0.7961    0.0000 C   0  0
   -4.6581    1.5106    0.0000 C   0  0
   -2.1434   -0.4125    0.0000 N   0  0
   -1.4290   -0.8250    0.0000 C   0  0
   -0.7145   -0.4125    0.0000 C   0  0
    0.0000   -0.8250    0.0000 C   0  0
    2.1406   -2.8894    0.0000 C   0  0
    2.1395   -3.5494    0.0000 N   0  0
   -2.8601    1.3738    0.0000 H   0  0
  1  2  1  0
  2  3  2  0
  3  4  1  0
  4  5  2  0
  5  6  1  0
  5 24  1  0
  6  7  2  0
  7  2  1  0
  7  8  1  0
  8  9  2  0
  9 10  1  0
 10 11  2  0
 11 12  1  0
 12 13  2  0
 13 14  1  0
 13 20  1  0
 14 15  1  0
 14 26  1  0
 15 16  2  0
 15 17  1  0
 17 18  1  0
 18 19  1  0
 19 17  1  0
 20 21  2  0
 21 22  1  0
 22 11  1  0
 22 23  2  0
 23  8  1  0
 24 25  3  0
M  END
> <CMPD_CHEMBLID>
CHEMBL3685045

> <STANDARD_TYPE>
Ki

> <RELATION>
=

> <STANDARD_VALUE>
0.2

> <STANDARD_UNITS>
nM

> <Molecular_Weight>
327.37918

$$$$

  SciTegic11272012012D

 28 30  0  0  0  0            999 V2000
    3.4239   -4.4626    0.0000 C   0  0
    2.8530   -4.1314    0.0000 O   0  0
    2.8542   -3.3060    0.0000 C   0  0
    2.1402   -2.8918    0.0000 C   0  0
    2.1413   -2.0663    0.0000 N   0  0
    1.4273   -1.6521    0.0000 C   0  0
    0.8551   -1.9812    0.0000 O   0  0
    1.4285   -0.8267    0.0000 N   0  0
    0.7144   -0.4125    0.0000 C   0  0
    0.7144    0.4125    0.0000 C   0  0
    0.0000    0.8250    0.0000 C   0  0
    0.0000    1.6500    0.0000 C   0  0
   -0.7145    2.0625    0.0000 C   0  0
   -1.4290    1.6500    0.0000 C   0  0
   -1.4290    0.8250    0.0000 C   0  0
   -0.7144    0.4125    0.0000 C   0  0
   -0.7144   -0.4125    0.0000 C   0  0
    0.0000   -0.8250    0.0000 N   0  0
   -2.1438    2.0627    0.0000 C   0  0
   -2.8576    1.6491    0.0000 C   0  0
   -3.5728    2.0605    0.0000 C   0  0
   -4.1438    1.7295    0.0000 F   0  0
   -3.5741    2.8855    0.0000 C   0  0
   -2.8603    3.2991    0.0000 C   0  0
   -2.1452    2.8877    0.0000 C   0  0
   -1.5741    3.2187    0.0000 C   0  0
    1.9053   -0.5525    0.0000 H   0  0
    2.6181   -1.7922    0.0000 H   0  0
  1  2  1  0
  2  3  1  0
  3  4  1  0
  4  5  1  0
  5  6  1  0
  5 28  1  0
  6  7  2  0
  6  8  1  0
  8  9  1  0
  8 27  1  0
  9 10  2  0
 10 11  1  0
 11 12  2  0
 12 13  1  0
 13 14  2  0
 14 15  1  0
 14 19  1  0
 15 16  2  0
 16 11  1  0
 16 17  1  0
 17 18  2  0
 18  9  1  0
 19 20  2  0
 20 21  1  0
 21 22  1  0
 21 23  2  0
 23 24  1  0
 24 25  2  0
 25 19  1  0
 25 26  1  0
M  END
> <CMPD_CHEMBLID>
CHEMBL3685110

> <STANDARD_TYPE>
Ki

> <RELATION>
=

> <STANDARD_VALUE>
0.2

> <STANDARD_UNITS>
nM

> <Molecular_Weight>
353.3901

$$$$

  SciTegic11272012012D

 28 31  0  0  0  0            999 V2000
    2.1455    0.2461    0.0000 C   0  0
    2.1445   -0.4139    0.0000 C   0  0
    2.8583   -0.8275    0.0000 C   0  0
    2.8570   -1.6525    0.0000 C   0  0
    2.1419   -2.0639    0.0000 C   0  0
    2.1408   -2.7239    0.0000 F   0  0
    1.4281   -1.6502    0.0000 C   0  0
    1.4293   -0.8252    0.0000 C   0  0
    0.7144   -0.4125    0.0000 C   0  0
    0.7144    0.4125    0.0000 C   0  0
    0.0000    0.8250    0.0000 C   0  0
    0.0000    1.6500    0.0000 C   0  0
   -0.7145    2.0625    0.0000 N   0  0
   -1.4290    1.6500    0.0000 C   0  0
   -2.1447    2.0612    0.0000 N   0  0
   -2.8590    1.6475    0.0000 C   0  0
   -2.8578    0.9875    0.0000 O   0  0
   -3.5747    2.0588    0.0000 C   0  0
   -4.3561    2.0337    0.0000 C   0  0
   -3.9436    2.7481    0.0000 C   0  0
   -1.4290    0.8250    0.0000 C   0  0
   -0.7144    0.4125    0.0000 C   0  0
   -0.7144   -0.4125    0.0000 C   0  0
   -1.4285   -0.8267    0.0000 C   0  0
   -1.4273   -1.6521    0.0000 O   0  0
    0.0000   -0.8250    0.0000 N   0  0
   -1.9031   -1.9281    0.0000 H   0  0
   -2.1457    2.6112    0.0000 H   0  0
  1  2  1  0
  2  3  2  0
  3  4  1  0
  4  5  2  0
  5  6  1  0
  5  7  1  0
  7  8  2  0
  8  2  1  0
  8  9  1  0
  9 10  2  0
 10 11  1  0
 11 12  2  0
 12 13  1  0
 13 14  2  0
 14 15  1  0
 14 21  1  0
 15 16  1  0
 15 28  1  0
 16 17  2  0
 16 18  1  0
 18 19  1  0
 19 20  1  0
 20 18  1  0
 21 22  2  0
 22 11  1  0
 22 23  1  0
 23 24  1  0
 23 26  2  0
 24 25  1  0
 25 27  1  0
 26  9  1  0
M  END
> <CMPD_CHEMBLID>
CHEMBL3689653

> <STANDARD_TYPE>
Ki

> <RELATION>
=

> <STANDARD_VALUE>
0.2

> <STANDARD_UNITS>
nM

> <Molecular_Weight>
351.37422

$$$$

  SciTegic11272012012D

 34 38  0  0  0  0            999 V2000
    2.1455    0.2461    0.0000 C   0  0
    2.1445   -0.4139    0.0000 C   0  0
    2.8583   -0.8275    0.0000 C   0  0
    2.8570   -1.6525    0.0000 C   0  0
    2.1419   -2.0639    0.0000 C   0  0
    2.1388   -2.8893    0.0000 N   0  0
    1.4227   -3.2999    0.0000 C   0  0
    0.8523   -2.9680    0.0000 O   0  0
    1.4198   -4.1253    0.0000 C   0  0
    0.7046   -4.5367    0.0000 C   0  0
    0.7033   -5.3617    0.0000 C   0  0
    1.4171   -5.7754    0.0000 O   0  0
    2.1322   -5.3640    0.0000 C   0  0
    2.1336   -4.5390    0.0000 C   0  0
    1.4281   -1.6502    0.0000 C   0  0
    1.4293   -0.8252    0.0000 C   0  0
    0.7144   -0.4125    0.0000 C   0  0
    0.7144    0.4125    0.0000 C   0  0
    0.0000    0.8250    0.0000 C   0  0
   -0.7144    0.4125    0.0000 C   0  0
   -1.4290    0.8250    0.0000 C   0  0
   -2.1434    0.4125    0.0000 C   0  0
   -2.8591    0.8237    0.0000 N   0  0
   -3.5734    0.4100    0.0000 C   0  0
   -3.5722   -0.2500    0.0000 O   0  0
   -4.2891    0.8213    0.0000 C   0  0
   -5.0706    0.7961    0.0000 C   0  0
   -4.6581    1.5106    0.0000 C   0  0
   -2.1434   -0.4125    0.0000 N   0  0
   -1.4290   -0.8250    0.0000 C   0  0
   -0.7144   -0.4125    0.0000 C   0  0
    0.0000   -0.8250    0.0000 C   0  0
   -2.8601    1.3737    0.0000 H   0  0
    2.6143   -3.1659    0.0000 H   0  0
  1  2  1  0
  2  3  2  0
  3  4  1  0
  4  5  2  0
  5  6  1  0
  5 15  1  0
  6  7  1  0
  6 34  1  0
  7  8  2  0
  7  9  1  0
  9 10  1  0
 10 11  1  0
 11 12  1  0
 12 13  1  0
 13 14  1  0
 14  9  1  0
 15 16  2  0
 16  2  1  0
 16 17  1  0
 17 18  2  0
 18 19  1  0
 19 20  2  0
 20 21  1  0
 21 22  2  0
 22 23  1  0
 22 29  1  0
 23 24  1  0
 23 33  1  0
 24 25  2  0
 24 26  1  0
 26 27  1  0
 27 28  1  0
 28 26  1  0
 29 30  2  0
 30 31  1  0
 31 20  1  0
 31 32  2  0
 32 17  1  0
M  END
> <CMPD_CHEMBLID>
CHEMBL3685174

> <STANDARD_TYPE>
Ki

> <RELATION>
=

> <STANDARD_VALUE>
0.2

> <STANDARD_UNITS>
nM

> <Molecular_Weight>
429.51088

$$$$

  SciTegic11272012012D

 31 35  0  0  0  0            999 V2000
    2.1455    0.2461    0.0000 C   0  0
    2.1445   -0.4139    0.0000 C   0  0
    2.8583   -0.8275    0.0000 C   0  0
    2.8570   -1.6525    0.0000 C   0  0
    2.1419   -2.0639    0.0000 C   0  0
    2.1408   -2.7239    0.0000 F   0  0
    1.4281   -1.6502    0.0000 C   0  0
    1.4293   -0.8252    0.0000 C   0  0
    0.7144   -0.4125    0.0000 C   0  0
    0.7144    0.4125    0.0000 C   0  0
    0.0000    0.8250    0.0000 C   0  0
    0.0000    1.6500    0.0000 C   0  0
   -0.7145    2.0625    0.0000 N   0  0
   -1.4290    1.6500    0.0000 C   0  0
   -2.1447    2.0612    0.0000 N   0  0
   -2.8590    1.6475    0.0000 C   0  0
   -2.8578    0.9875    0.0000 O   0  0
   -3.5747    2.0588    0.0000 C   0  0
   -4.3561    2.0337    0.0000 C   0  0
   -3.9436    2.7481    0.0000 C   0  0
   -1.4290    0.8250    0.0000 C   0  0
   -0.7144    0.4125    0.0000 C   0  0
   -0.7144   -0.4125    0.0000 C   0  0
    0.0000   -0.8250    0.0000 N   0  0
   -1.4293   -0.8252    0.0000 C   0  0
   -2.1445   -0.4139    0.0000 C   0  0
   -2.8583   -0.8275    0.0000 C   0  0
   -2.8570   -1.6525    0.0000 N   0  0
   -2.1419   -2.0639    0.0000 C   0  0
   -1.4280   -1.6502    0.0000 C   0  0
   -2.1457    2.6112    0.0000 H   0  0
  1  2  1  0
  2  3  2  0
  3  4  1  0
  4  5  2  0
  5  6  1  0
  5  7  1  0
  7  8  2  0
  8  2  1  0
  8  9  1  0
  9 10  2  0
 10 11  1  0
 11 12  2  0
 12 13  1  0
 13 14  2  0
 14 15  1  0
 14 21  1  0
 15 16  1  0
 15 31  1  0
 16 17  2  0
 16 18  1  0
 18 19  1  0
 19 20  1  0
 20 18  1  0
 21 22  2  0
 22 11  1  0
 22 23  1  0
 23 24  2  0
 23 25  1  0
 24  9  1  0
 25 26  2  0
 26 27  1  0
 27 28  2  0
 28 29  1  0
 29 30  2  0
 30 25  1  0
M  END
> <CMPD_CHEMBLID>
CHEMBL3689664

> <STANDARD_TYPE>
Ki

> <RELATION>
=

> <STANDARD_VALUE>
0.2

> <STANDARD_UNITS>
nM

> <Molecular_Weight>
398.43226

$$$$

  SciTegic11272012012D

 31 35  0  0  0  0            999 V2000
    2.1455    0.2461    0.0000 C   0  0
    2.1445   -0.4139    0.0000 C   0  0
    2.8583   -0.8275    0.0000 C   0  0
    2.8570   -1.6525    0.0000 C   0  0
    2.1419   -2.0639    0.0000 C   0  0
    2.1408   -2.7239    0.0000 F   0  0
    1.4281   -1.6502    0.0000 C   0  0
    1.4293   -0.8252    0.0000 C   0  0
    0.7144   -0.4125    0.0000 C   0  0
    0.7144    0.4125    0.0000 C   0  0
    0.0000    0.8250    0.0000 C   0  0
    0.0000    1.6500    0.0000 C   0  0
   -0.7145    2.0625    0.0000 N   0  0
   -1.4290    1.6500    0.0000 C   0  0
   -2.1447    2.0612    0.0000 N   0  0
   -2.8590    1.6475    0.0000 C   0  0
   -2.8578    0.9875    0.0000 O   0  0
   -3.5747    2.0588    0.0000 C   0  0
   -4.3561    2.0337    0.0000 C   0  0
   -3.9436    2.7481    0.0000 C   0  0
   -1.4290    0.8250    0.0000 C   0  0
   -0.7144    0.4125    0.0000 C   0  0
   -0.7144   -0.4125    0.0000 C   0  0
    0.0000   -0.8250    0.0000 N   0  0
   -1.4293   -0.8252    0.0000 C   0  0
   -2.1731   -0.4848    0.0000 C   0  0
   -2.7242   -1.0988    0.0000 C   0  0
   -2.3105   -1.8126    0.0000 N   0  0
   -1.5039   -1.6398    0.0000 N   0  0
   -2.5335   -2.3154    0.0000 H   0  0
   -2.1457    2.6112    0.0000 H   0  0
  1  2  1  0
  2  3  2  0
  3  4  1  0
  4  5  2  0
  5  6  1  0
  5  7  1  0
  7  8  2  0
  8  2  1  0
  8  9  1  0
  9 10  2  0
 10 11  1  0
 11 12  2  0
 12 13  1  0
 13 14  2  0
 14 15  1  0
 14 21  1  0
 15 16  1  0
 15 31  1  0
 16 17  2  0
 16 18  1  0
 18 19  1  0
 19 20  1  0
 20 18  1  0
 21 22  2  0
 22 11  1  0
 22 23  1  0
 23 24  2  0
 23 25  1  0
 24  9  1  0
 25 26  1  0
 26 27  2  0
 27 28  1  0
 28 29  1  0
 28 30  1  0
 29 25  2  0
M  END
> <CMPD_CHEMBLID>
CHEMBL3689665

> <STANDARD_TYPE>
Ki

> <RELATION>
=

> <STANDARD_VALUE>
0.2

> <STANDARD_UNITS>
nM

> <Molecular_Weight>
387.40962

$$$$

  SciTegic11272012012D

 28 31  0  0  0  0            999 V2000
    2.1456    0.2461    0.0000 C   0  0
    2.1445   -0.4139    0.0000 C   0  0
    2.8583   -0.8275    0.0000 C   0  0
    2.8570   -1.6525    0.0000 C   0  0
    2.1419   -2.0639    0.0000 C   0  0
    2.1408   -2.7239    0.0000 F   0  0
    1.4281   -1.6502    0.0000 C   0  0
    1.4293   -0.8252    0.0000 C   0  0
    0.7145   -0.4125    0.0000 C   0  0
    0.7145    0.4125    0.0000 C   0  0
    0.0000    0.8250    0.0000 C   0  0
   -0.7145    0.4125    0.0000 C   0  0
   -1.4290    0.8250    0.0000 C   0  0
   -2.1434    0.4125    0.0000 C   0  0
   -2.8592    0.8237    0.0000 N   0  0
   -3.5735    0.4100    0.0000 C   0  0
   -3.5723   -0.2500    0.0000 O   0  0
   -4.2892    0.8213    0.0000 N   0  0
   -5.0035    0.4075    0.0000 C   0  0
   -5.7766    0.6325    0.0000 C   0  0
   -5.9873   -0.1651    0.0000 O   0  0
   -5.1897   -0.3759    0.0000 C   0  0
   -2.1434   -0.4125    0.0000 N   0  0
   -1.4290   -0.8250    0.0000 C   0  0
   -0.7145   -0.4125    0.0000 C   0  0
    0.0000   -0.8250    0.0000 C   0  0
   -4.2902    1.3713    0.0000 H   0  0
   -2.8601    1.3738    0.0000 H   0  0
  1  2  1  0
  2  3  2  0
  3  4  1  0
  4  5  2  0
  5  6  1  0
  5  7  1  0
  7  8  2  0
  8  2  1  0
  8  9  1  0
  9 10  2  0
 10 11  1  0
 11 12  2  0
 12 13  1  0
 13 14  2  0
 14 15  1  0
 14 23  1  0
 15 16  1  0
 15 28  1  0
 16 17  2  0
 16 18  1  0
 18 19  1  0
 18 27  1  0
 19 20  1  0
 20 21  1  0
 21 22  1  0
 22 19  1  0
 23 24  2  0
 24 25  1  0
 25 12  1  0
 25 26  2  0
 26  9  1  0
M  END
> <CMPD_CHEMBLID>
CHEMBL3685124

> <STANDARD_TYPE>
Ki

> <RELATION>
=

> <STANDARD_VALUE>
0.2

> <STANDARD_UNITS>
nM

> <Molecular_Weight>
351.37422

$$$$

  SciTegic11272012012D

 35 39  0  0  0  0            999 V2000
    4.4262   -6.6399    0.0000 C   0  0
    4.1926   -6.0227    0.0000 N   0  0
    4.6105   -5.5119    0.0000 C   0  0
    3.3780   -5.8891    0.0000 C   0  0
    3.0859   -5.1171    0.0000 C   0  0
    2.2719   -4.9825    0.0000 C   0  0
    1.9815   -4.2103    0.0000 C   0  0
    2.4971   -3.5809    0.0000 C   0  0
    3.3190   -3.7073    0.0000 C   0  0
    3.6094   -4.4795    0.0000 C   0  0
    2.5103   -2.7557    0.0000 C   0  0
    2.9228   -2.0412    0.0000 C   0  0
    2.1413   -2.0663    0.0000 C   0  0
    1.4273   -1.6521    0.0000 C   0  0
    0.8551   -1.9812    0.0000 O   0  0
    1.4285   -0.8267    0.0000 N   0  0
    0.7144   -0.4125    0.0000 C   0  0
    0.7144    0.4125    0.0000 C   0  0
    0.0000    0.8250    0.0000 C   0  0
    0.0000    1.6500    0.0000 C   0  0
   -0.7145    2.0625    0.0000 C   0  0
   -1.4290    1.6500    0.0000 C   0  0
   -1.4290    0.8250    0.0000 C   0  0
   -0.7144    0.4125    0.0000 C   0  0
   -0.7144   -0.4125    0.0000 C   0  0
    0.0000   -0.8250    0.0000 N   0  0
   -2.1438    2.0627    0.0000 C   0  0
   -2.8576    1.6491    0.0000 C   0  0
   -3.5728    2.0605    0.0000 C   0  0
   -4.1438    1.7295    0.0000 F   0  0
   -3.5741    2.8855    0.0000 C   0  0
   -2.8603    3.2991    0.0000 C   0  0
   -2.1452    2.8877    0.0000 C   0  0
   -1.5741    3.2187    0.0000 C   0  0
    1.9053   -0.5525    0.0000 H   0  0
  1  2  1  0
  2  3  1  0
  2  4  1  0
  4  5  1  0
  5  6  2  0
  6  7  1  0
  7  8  2  0
  8  9  1  0
  8 11  1  0
  9 10  2  0
 10  5  1  0
 11 12  1  0
 12 13  1  0
 13 11  1  0
 13 14  1  0
 14 15  2  0
 14 16  1  0
 16 17  1  0
 16 35  1  0
 17 18  2  0
 18 19  1  0
 19 20  2  0
 20 21  1  0
 21 22  2  0
 22 23  1  0
 22 27  1  0
 23 24  2  0
 24 19  1  0
 24 25  1  0
 25 26  2  0
 26 17  1  0
 27 28  2  0
 28 29  1  0
 29 30  1  0
 29 31  2  0
 31 32  1  0
 32 33  2  0
 33 27  1  0
 33 34  1  0
M  END
> <CMPD_CHEMBLID>
CHEMBL3689584

> <STANDARD_TYPE>
Ki

> <RELATION>
=

> <STANDARD_VALUE>
0.2

> <STANDARD_UNITS>
nM

> <Molecular_Weight>
453.55052

$$$$

  SciTegic11272012012D

 45 48  0  0  0  0            999 V2000
    6.1148   -2.4386    0.0000 C   0  0
    5.4583   -2.5062    0.0000 N   0  0
    4.9740   -1.8377    0.0000 C   0  0
    5.2435   -1.2352    0.0000 O   0  0
    4.1543   -1.9222    0.0000 C   0  0
    3.7418   -2.6366    0.0000 N   0  0
    2.9349   -2.4651    0.0000 C   0  0
    2.8591   -1.6507    0.0000 C   0  0
    2.1442   -1.2379    0.0000 C   0  0
    1.4293   -0.8252    0.0000 C   0  0
    0.7144   -0.4125    0.0000 C   0  0
    0.7144    0.4125    0.0000 C   0  0
    0.0000    0.8250    0.0000 C   0  0
   -0.7144    0.4125    0.0000 C   0  0
   -0.7144   -0.4125    0.0000 C   0  0
    0.0000   -0.8250    0.0000 C   0  0
    0.0000   -1.4850    0.0000 C   0  0
   -0.0017    1.6504    0.0000 C   0  0
    0.5693    1.9814    0.0000 O   0  0
   -0.7171    2.0622    0.0000 N   0  0
   -0.7188    2.8876    0.0000 C   0  0
   -1.4334    3.3002    0.0000 C   0  0
   -1.4334    4.1252    0.0000 C   0  0
   -0.7189    4.5377    0.0000 C   0  0
   -0.7206    5.3631    0.0000 C   0  0
   -1.4361    5.7748    0.0000 N   0  0
   -1.4390    6.5998    0.0000 C   0  0
   -2.1549    7.0098    0.0000 C   0  0
   -2.8679    6.5948    0.0000 N   0  0
   -3.5851    7.0036    0.0000 C   0  0
   -4.2979    6.5873    0.0000 C   0  0
   -5.0151    6.9961    0.0000 O   0  0
   -2.8651    5.7698    0.0000 C   0  0
   -2.1492    5.3599    0.0000 C   0  0
   -0.0044    4.1252    0.0000 C   0  0
   -0.0044    3.3002    0.0000 C   0  0
    0.7104    4.5379    0.0000 C   0  0
    0.7108    5.1979    0.0000 F   0  0
    1.2819    4.2078    0.0000 F   0  0
    1.2822    4.8677    0.0000 F   0  0
    3.6023   -1.3091    0.0000 N   0  0
    3.7357   -0.6627    0.0000 C   0  0
   -5.4900    6.7188    0.0000 H   0  0
   -1.1930    1.7863    0.0000 H   0  0
    5.2337   -3.0083    0.0000 H   0  0
  1  2  1  0
  2  3  1  0
  2 45  1  0
  3  4  2  0
  3  5  1  0
  5  6  2  0
  6  7  1  0
  7  8  2  0
  8  9  1  0
  8 41  1  0
  9 10  3  0
 10 11  1  0
 11 12  2  0
 12 13  1  0
 13 14  2  0
 13 18  1  0
 14 15  1  0
 15 16  2  0
 16 11  1  0
 16 17  1  0
 18 19  2  0
 18 20  1  0
 20 21  1  0
 20 44  1  0
 21 22  2  0
 22 23  1  0
 23 24  2  0
 24 25  1  0
 24 35  1  0
 25 26  1  0
 26 27  1  0
 27 28  1  0
 28 29  1  0
 29 30  1  0
 29 33  1  0
 30 31  1  0
 31 32  1  0
 32 43  1  0
 33 34  1  0
 34 26  1  0
 35 36  2  0
 35 37  1  0
 36 21  1  0
 37 38  1  0
 37 39  1  0
 37 40  1  0
 41  5  1  0
 41 42  1  0
M  END
> <CMPD_CHEMBLID>
CHEMBL1784637

> <STANDARD_TYPE>
IC50

> <RELATION>
=

> <STANDARD_VALUE>
0.2

> <STANDARD_UNITS>
nM

> <Molecular_Weight>
582.61663

$$$$

  SciTegic11272012012D

 46 51  0  0  0  0            999 V2000
   -1.3084   -8.1563    0.0000 C   0  0
   -0.7352   -7.8292    0.0000 N   0  0
   -0.0228   -8.2453    0.0000 C   0  0
    0.6938   -7.8364    0.0000 C   0  0
    0.6979   -7.0114    0.0000 N   0  0
    1.4141   -6.6008    0.0000 C   0  0
    1.4171   -5.7754    0.0000 C   0  0
    0.7033   -5.3617    0.0000 C   0  0
    0.7046   -4.5367    0.0000 C   0  0
    1.4198   -4.1253    0.0000 C   0  0
    2.1336   -4.5390    0.0000 C   0  0
    2.1322   -5.3640    0.0000 C   0  0
    2.8464   -5.7779    0.0000 C   0  0
    3.4187   -5.4492    0.0000 F   0  0
    2.8451   -6.4379    0.0000 F   0  0
    3.4173   -6.1091    0.0000 F   0  0
    1.4227   -3.2999    0.0000 C   0  0
    0.8523   -2.9680    0.0000 O   0  0
    2.1388   -2.8893    0.0000 N   0  0
    2.1419   -2.0639    0.0000 C   0  0
    2.8570   -1.6525    0.0000 C   0  0
    2.8583   -0.8275    0.0000 N   0  0
    2.1445   -0.4139    0.0000 C   0  0
    2.1455    0.2461    0.0000 C   0  0
    1.4293   -0.8252    0.0000 C   0  0
    1.4281   -1.6502    0.0000 C   0  0
    0.7144   -0.4125    0.0000 C   0  0
    0.7144    0.4125    0.0000 C   0  0
    0.0000    0.8250    0.0000 C   0  0
   -0.7144    0.4125    0.0000 C   0  0
   -1.4290    0.8250    0.0000 C   0  0
   -2.1434    0.4125    0.0000 C   0  0
   -2.8591    0.8237    0.0000 N   0  0
   -3.5734    0.4100    0.0000 C   0  0
   -3.5722   -0.2500    0.0000 O   0  0
   -4.2891    0.8213    0.0000 C   0  0
   -5.0706    0.7961    0.0000 C   0  0
   -4.6581    1.5106    0.0000 C   0  0
   -2.1434   -0.4125    0.0000 N   0  0
   -1.4290   -0.8250    0.0000 C   0  0
   -0.7144   -0.4125    0.0000 C   0  0
    0.0000   -0.8250    0.0000 C   0  0
   -0.0145   -6.5953    0.0000 C   0  0
   -0.7310   -7.0042    0.0000 C   0  0
   -2.8601    1.3737    0.0000 H   0  0
    2.6143   -3.1659    0.0000 H   0  0
  1  2  1  0
  2  3  1  0
  3  4  1  0
  4  5  1  0
  5  6  1  0
  5 43  1  0
  6  7  1  0
  7  8  2  0
  8  9  1  0
  9 10  2  0
 10 11  1  0
 10 17  1  0
 11 12  2  0
 12  7  1  0
 12 13  1  0
 13 14  1  0
 13 15  1  0
 13 16  1  0
 17 18  2  0
 17 19  1  0
 19 20  1  0
 19 46  1  0
 20 21  2  0
 21 22  1  0
 22 23  2  0
 23 24  1  0
 23 25  1  0
 25 26  2  0
 25 27  1  0
 26 20  1  0
 27 28  2  0
 28 29  1  0
 29 30  2  0
 30 31  1  0
 31 32  2  0
 32 33  1  0
 32 39  1  0
 33 34  1  0
 33 45  1  0
 34 35  2  0
 34 36  1  0
 36 37  1  0
 37 38  1  0
 38 36  1  0
 39 40  2  0
 40 41  1  0
 41 30  1  0
 41 42  2  0
 42 27  1  0
 43 44  1  0
 44  2  1  0
M  END
> <CMPD_CHEMBLID>
CHEMBL3689592

> <STANDARD_TYPE>
Ki

> <RELATION>
=

> <STANDARD_VALUE>
0.2

> <STANDARD_UNITS>
nM

> <Molecular_Weight>
602.64933

$$$$

  SciTegic11272012012D

 35 39  0  0  0  0            999 V2000
    2.7033   -5.6950    0.0000 C   0  0
    2.1322   -5.3640    0.0000 N   0  0
    1.4171   -5.7754    0.0000 C   0  0
    0.7033   -5.3617    0.0000 C   0  0
    0.7046   -4.5367    0.0000 O   0  0
    1.4198   -4.1253    0.0000 C   0  0
    2.1336   -4.5390    0.0000 C   0  0
    1.4227   -3.2999    0.0000 C   0  0
    0.8523   -2.9680    0.0000 O   0  0
    2.1388   -2.8893    0.0000 N   0  0
    2.1419   -2.0639    0.0000 C   0  0
    2.8570   -1.6525    0.0000 C   0  0
    2.8583   -0.8275    0.0000 C   0  0
    2.1445   -0.4139    0.0000 C   0  0
    2.1455    0.2461    0.0000 C   0  0
    1.4293   -0.8252    0.0000 C   0  0
    1.4281   -1.6502    0.0000 C   0  0
    0.7144   -0.4125    0.0000 C   0  0
    0.7144    0.4125    0.0000 C   0  0
    0.0000    0.8250    0.0000 C   0  0
   -0.7144    0.4125    0.0000 C   0  0
   -1.4290    0.8250    0.0000 C   0  0
   -2.1434    0.4125    0.0000 C   0  0
   -2.8591    0.8237    0.0000 N   0  0
   -3.5734    0.4100    0.0000 C   0  0
   -3.5722   -0.2500    0.0000 O   0  0
   -4.2891    0.8213    0.0000 C   0  0
   -5.0706    0.7961    0.0000 C   0  0
   -4.6581    1.5106    0.0000 C   0  0
   -2.1434   -0.4125    0.0000 N   0  0
   -1.4290   -0.8250    0.0000 C   0  0
   -0.7144   -0.4125    0.0000 C   0  0
    0.0000   -0.8250    0.0000 C   0  0
   -2.8601    1.3737    0.0000 H   0  0
    2.6143   -3.1659    0.0000 H   0  0
  1  2  1  0
  2  3  1  0
  3  4  1  0
  4  5  1  0
  5  6  1  0
  6  7  1  0
  6  8  1  0
  7  2  1  0
  8  9  2  0
  8 10  1  0
 10 11  1  0
 10 35  1  0
 11 12  2  0
 12 13  1  0
 13 14  2  0
 14 15  1  0
 14 16  1  0
 16 17  2  0
 16 18  1  0
 17 11  1  0
 18 19  2  0
 19 20  1  0
 20 21  2  0
 21 22  1  0
 22 23  2  0
 23 24  1  0
 23 30  1  0
 24 25  1  0
 24 34  1  0
 25 26  2  0
 25 27  1  0
 27 28  1  0
 28 29  1  0
 29 27  1  0
 30 31  2  0
 31 32  1  0
 32 21  1  0
 32 33  2  0
 33 18  1  0
M  END
> <CMPD_CHEMBLID>
CHEMBL3689547

> <STANDARD_TYPE>
Ki

> <RELATION>
=

> <STANDARD_VALUE>
0.2

> <STANDARD_UNITS>
nM

> <Molecular_Weight>
444.52552

$$$$

  SciTegic11272012012D

 27 30  0  0  0  0            999 V2000
    2.1455    0.2461    0.0000 C   0  0
    2.1445   -0.4139    0.0000 C   0  0
    2.8583   -0.8275    0.0000 C   0  0
    2.8570   -1.6525    0.0000 C   0  0
    2.1419   -2.0639    0.0000 C   0  0
    2.1408   -2.7239    0.0000 F   0  0
    1.4281   -1.6502    0.0000 C   0  0
    1.4293   -0.8252    0.0000 C   0  0
    0.7144   -0.4125    0.0000 C   0  0
    0.7144    0.4125    0.0000 C   0  0
    0.0000    0.8250    0.0000 C   0  0
    0.0000    1.6500    0.0000 C   0  0
   -0.7145    2.0625    0.0000 N   0  0
   -1.4290    1.6500    0.0000 C   0  0
   -2.1447    2.0612    0.0000 N   0  0
   -2.8590    1.6475    0.0000 C   0  0
   -2.8578    0.9875    0.0000 O   0  0
   -3.5747    2.0588    0.0000 C   0  0
   -4.3561    2.0337    0.0000 C   0  0
   -3.9436    2.7481    0.0000 C   0  0
   -1.4290    0.8250    0.0000 C   0  0
   -0.7144    0.4125    0.0000 C   0  0
   -0.7144   -0.4125    0.0000 C   0  0
   -1.4285   -0.8267    0.0000 C   0  0
   -1.4275   -1.4867    0.0000 F   0  0
    0.0000   -0.8250    0.0000 N   0  0
   -2.1457    2.6112    0.0000 H   0  0
  1  2  1  0
  2  3  2  0
  3  4  1  0
  4  5  2  0
  5  6  1  0
  5  7  1  0
  7  8  2  0
  8  2  1  0
  8  9  1  0
  9 10  2  0
 10 11  1  0
 11 12  2  0
 12 13  1  0
 13 14  2  0
 14 15  1  0
 14 21  1  0
 15 16  1  0
 15 27  1  0
 16 17  2  0
 16 18  1  0
 18 19  1  0
 19 20  1  0
 20 18  1  0
 21 22  2  0
 22 11  1  0
 22 23  1  0
 23 24  1  0
 23 26  2  0
 24 25  1  0
 26  9  1  0
M  END
> <CMPD_CHEMBLID>
CHEMBL3689658

> <STANDARD_TYPE>
Ki

> <RELATION>
=

> <STANDARD_VALUE>
0.2

> <STANDARD_UNITS>
nM

> <Molecular_Weight>
353.36529

$$$$

  SciTegic11272012012D

 26 29  0  0  0  0            999 V2000
    2.4997   -3.4156    0.0000 C   0  0
    2.5103   -2.7557    0.0000 C   0  0
    2.9228   -2.0412    0.0000 C   0  0
    2.1413   -2.0663    0.0000 C   0  0
    1.4273   -1.6521    0.0000 C   0  0
    0.8551   -1.9812    0.0000 O   0  0
    1.4285   -0.8267    0.0000 N   0  0
    0.7144   -0.4125    0.0000 C   0  0
    0.7144    0.4125    0.0000 C   0  0
    0.0000    0.8250    0.0000 C   0  0
    0.0000    1.6500    0.0000 C   0  0
   -0.7145    2.0625    0.0000 C   0  0
   -1.4290    1.6500    0.0000 C   0  0
   -1.4290    0.8250    0.0000 C   0  0
   -0.7144    0.4125    0.0000 C   0  0
   -0.7144   -0.4125    0.0000 C   0  0
    0.0000   -0.8250    0.0000 N   0  0
   -2.1438    2.0627    0.0000 C   0  0
   -2.8576    1.6491    0.0000 C   0  0
   -3.5728    2.0605    0.0000 C   0  0
   -4.1438    1.7295    0.0000 F   0  0
   -3.5741    2.8855    0.0000 C   0  0
   -2.8603    3.2991    0.0000 C   0  0
   -2.1452    2.8877    0.0000 C   0  0
   -1.5741    3.2187    0.0000 C   0  0
    1.9053   -0.5525    0.0000 H   0  0
  1  2  1  0
  2  3  1  0
  3  4  1  0
  4  2  1  0
  4  5  1  0
  5  6  2  0
  5  7  1  0
  7  8  1  0
  7 26  1  0
  8  9  2  0
  9 10  1  0
 10 11  2  0
 11 12  1  0
 12 13  2  0
 13 14  1  0
 13 18  1  0
 14 15  2  0
 15 10  1  0
 15 16  1  0
 16 17  2  0
 17  8  1  0
 18 19  2  0
 19 20  1  0
 20 21  1  0
 20 22  2  0
 22 23  1  0
 23 24  2  0
 24 18  1  0
 24 25  1  0
M  END
> <CMPD_CHEMBLID>
CHEMBL3685169

> <STANDARD_TYPE>
Ki

> <RELATION>
=

> <STANDARD_VALUE>
0.2

> <STANDARD_UNITS>
nM

> <Molecular_Weight>
334.38676

$$$$

  SciTegic11272012012D

 33 37  0  0  0  0            999 V2000
    0.8560   -1.9794    0.0000 C   0  0
    1.4281   -1.6503    0.0000 C   0  0
    2.1419   -2.0639    0.0000 C   0  0
    2.8570   -1.6525    0.0000 C   0  0
    2.8584   -0.8275    0.0000 C   0  0
    3.5747   -0.4174    0.0000 N   0  0
    4.2884   -0.8323    0.0000 C   0  0
    4.2862   -1.4923    0.0000 O   0  0
    5.0048   -0.4221    0.0000 C   0  0
    5.7767   -0.6510    0.0000 C   0  0
    5.9914    0.1455    0.0000 C   0  0
    5.1949    0.3603    0.0000 C   0  0
    2.1446   -0.4139    0.0000 C   0  0
    2.1456    0.2461    0.0000 F   0  0
    1.4293   -0.8252    0.0000 C   0  0
    0.7145   -0.4125    0.0000 C   0  0
    0.7145    0.4125    0.0000 C   0  0
    0.0000    0.8250    0.0000 C   0  0
   -0.7145    0.4125    0.0000 C   0  0
   -1.4290    0.8250    0.0000 C   0  0
   -2.1435    0.4125    0.0000 C   0  0
   -2.8592    0.8238    0.0000 N   0  0
   -3.5735    0.4100    0.0000 C   0  0
   -3.5723   -0.2500    0.0000 O   0  0
   -4.2892    0.8213    0.0000 C   0  0
   -5.0707    0.7961    0.0000 C   0  0
   -4.6582    1.5106    0.0000 C   0  0
   -2.1435   -0.4125    0.0000 N   0  0
   -1.4290   -0.8250    0.0000 C   0  0
   -0.7145   -0.4125    0.0000 C   0  0
    0.0000   -0.8250    0.0000 C   0  0
   -2.8602    1.3738    0.0000 H   0  0
    3.5766    0.1326    0.0000 H   0  0
  1  2  1  0
  2  3  2  0
  3  4  1  0
  4  5  2  0
  5  6  1  0
  5 13  1  0
  6  7  1  0
  6 33  1  0
  7  8  2  0
  7  9  1  0
  9 10  1  0
 10 11  1  0
 11 12  1  0
 12  9  1  0
 13 14  1  0
 13 15  2  0
 15  2  1  0
 15 16  1  0
 16 17  2  0
 17 18  1  0
 18 19  2  0
 19 20  1  0
 20 21  2  0
 21 22  1  0
 21 28  1  0
 22 23  1  0
 22 32  1  0
 23 24  2  0
 23 25  1  0
 25 26  1  0
 26 27  1  0
 27 25  1  0
 28 29  2  0
 29 30  1  0
 30 19  1  0
 30 31  2  0
 31 16  1  0
M  END
> <CMPD_CHEMBLID>
CHEMBL3689628

> <STANDARD_TYPE>
Ki

> <RELATION>
=

> <STANDARD_VALUE>
0.2

> <STANDARD_UNITS>
nM

> <Molecular_Weight>
417.47536

$$$$

  SciTegic11272012012D

 26 28  0  0  0  0            999 V2000
    2.7111   -3.2230    0.0000 C   0  0
    2.1402   -2.8918    0.0000 C   0  0
    2.1413   -2.0663    0.0000 N   0  0
    1.4273   -1.6521    0.0000 C   0  0
    0.8551   -1.9812    0.0000 O   0  0
    1.4285   -0.8267    0.0000 N   0  0
    0.7144   -0.4125    0.0000 C   0  0
    0.7144    0.4125    0.0000 C   0  0
    0.0000    0.8250    0.0000 C   0  0
    0.0000    1.6500    0.0000 C   0  0
   -0.7145    2.0625    0.0000 C   0  0
   -1.4290    1.6500    0.0000 C   0  0
   -1.4290    0.8250    0.0000 C   0  0
   -0.7144    0.4125    0.0000 C   0  0
   -0.7144   -0.4125    0.0000 C   0  0
    0.0000   -0.8250    0.0000 N   0  0
   -2.1438    2.0627    0.0000 C   0  0
   -2.8576    1.6491    0.0000 C   0  0
   -3.5728    2.0605    0.0000 C   0  0
   -4.1438    1.7295    0.0000 F   0  0
   -3.5741    2.8855    0.0000 C   0  0
   -2.8603    3.2991    0.0000 C   0  0
   -2.1452    2.8877    0.0000 C   0  0
   -1.5741    3.2187    0.0000 C   0  0
    1.9053   -0.5525    0.0000 H   0  0
    2.6181   -1.7922    0.0000 H   0  0
  1  2  1  0
  2  3  1  0
  3  4  1  0
  3 26  1  0
  4  5  2  0
  4  6  1  0
  6  7  1  0
  6 25  1  0
  7  8  2  0
  8  9  1  0
  9 10  2  0
 10 11  1  0
 11 12  2  0
 12 13  1  0
 12 17  1  0
 13 14  2  0
 14  9  1  0
 14 15  1  0
 15 16  2  0
 16  7  1  0
 17 18  2  0
 18 19  1  0
 19 20  1  0
 19 21  2  0
 21 22  1  0
 22 23  2  0
 23 17  1  0
 23 24  1  0
M  END
> <CMPD_CHEMBLID>
CHEMBL3685099

> <STANDARD_TYPE>
Ki

> <RELATION>
=

> <STANDARD_VALUE>
0.2

> <STANDARD_UNITS>
nM

> <Molecular_Weight>
323.36412

$$$$

  SciTegic11272012012D

 31 35  0  0  0  0            999 V2000
    2.1455    0.2461    0.0000 C   0  0
    2.1445   -0.4139    0.0000 C   0  0
    2.8583   -0.8275    0.0000 C   0  0
    2.8570   -1.6525    0.0000 C   0  0
    2.1419   -2.0639    0.0000 C   0  0
    2.1408   -2.7239    0.0000 F   0  0
    1.4281   -1.6502    0.0000 C   0  0
    1.4293   -0.8252    0.0000 C   0  0
    0.7144   -0.4125    0.0000 C   0  0
    0.7144    0.4125    0.0000 C   0  0
    0.0000    0.8250    0.0000 C   0  0
    0.0000    1.6500    0.0000 C   0  0
   -0.7145    2.0625    0.0000 N   0  0
   -1.4290    1.6500    0.0000 C   0  0
   -2.1447    2.0612    0.0000 N   0  0
   -2.8590    1.6475    0.0000 C   0  0
   -2.8578    0.9875    0.0000 O   0  0
   -3.5747    2.0588    0.0000 C   0  0
   -4.3561    2.0337    0.0000 C   0  0
   -3.9436    2.7481    0.0000 C   0  0
   -1.4290    0.8250    0.0000 C   0  0
   -0.7144    0.4125    0.0000 C   0  0
   -0.7144   -0.4125    0.0000 C   0  0
    0.0000   -0.8250    0.0000 N   0  0
   -1.4293   -0.8252    0.0000 C   0  0
   -2.1445   -0.4139    0.0000 C   0  0
   -2.8583   -0.8275    0.0000 C   0  0
   -2.8570   -1.6525    0.0000 C   0  0
   -2.1419   -2.0639    0.0000 N   0  0
   -1.4280   -1.6502    0.0000 C   0  0
   -2.1457    2.6112    0.0000 H   0  0
  1  2  1  0
  2  3  2  0
  3  4  1  0
  4  5  2  0
  5  6  1  0
  5  7  1  0
  7  8  2  0
  8  2  1  0
  8  9  1  0
  9 10  2  0
 10 11  1  0
 11 12  2  0
 12 13  1  0
 13 14  2  0
 14 15  1  0
 14 21  1  0
 15 16  1  0
 15 31  1  0
 16 17  2  0
 16 18  1  0
 18 19  1  0
 19 20  1  0
 20 18  1  0
 21 22  2  0
 22 11  1  0
 22 23  1  0
 23 24  2  0
 23 25  1  0
 24  9  1  0
 25 26  2  0
 26 27  1  0
 27 28  2  0
 28 29  1  0
 29 30  2  0
 30 25  1  0
M  END
> <CMPD_CHEMBLID>
CHEMBL3689655

> <STANDARD_TYPE>
Ki

> <RELATION>
=

> <STANDARD_VALUE>
0.2

> <STANDARD_UNITS>
nM

> <Molecular_Weight>
398.43226

$$$$

  SciTegic11272012012D

 25 28  0  0  0  0            999 V2000
    0.8560   -1.9794    0.0000 C   0  0
    1.4281   -1.6502    0.0000 C   0  0
    2.1419   -2.0639    0.0000 C   0  0
    2.8570   -1.6525    0.0000 C   0  0
    2.8583   -0.8275    0.0000 C   0  0
    2.1445   -0.4139    0.0000 C   0  0
    2.1456    0.2461    0.0000 C   0  0
    1.4293   -0.8252    0.0000 C   0  0
    0.7145   -0.4125    0.0000 C   0  0
    0.7145    0.4125    0.0000 C   0  0
    0.0000    0.8250    0.0000 C   0  0
   -0.7145    0.4125    0.0000 C   0  0
   -1.4290    0.8250    0.0000 C   0  0
   -2.1434    0.4125    0.0000 C   0  0
   -2.8592    0.8237    0.0000 N   0  0
   -3.5735    0.4100    0.0000 C   0  0
   -3.5723   -0.2500    0.0000 O   0  0
   -4.2892    0.8213    0.0000 C   0  0
   -5.0707    0.7961    0.0000 C   0  0
   -4.6581    1.5106    0.0000 C   0  0
   -2.1434   -0.4125    0.0000 N   0  0
   -1.4290   -0.8250    0.0000 C   0  0
   -0.7145   -0.4125    0.0000 C   0  0
    0.0000   -0.8250    0.0000 C   0  0
   -2.8602    1.3738    0.0000 H   0  0
  1  2  1  0
  2  3  2  0
  3  4  1  0
  4  5  2  0
  5  6  1  0
  6  7  1  0
  6  8  2  0
  8  2  1  0
  8  9  1  0
  9 10  2  0
 10 11  1  0
 11 12  2  0
 12 13  1  0
 13 14  2  0
 14 15  1  0
 14 21  1  0
 15 16  1  0
 15 25  1  0
 16 17  2  0
 16 18  1  0
 18 19  1  0
 19 20  1  0
 20 18  1  0
 21 22  2  0
 22 23  1  0
 23 12  1  0
 23 24  2  0
 24  9  1  0
M  END
> <CMPD_CHEMBLID>
CHEMBL3639885

> <STANDARD_TYPE>
Ki

> <RELATION>
=

> <STANDARD_VALUE>
0.204

> <STANDARD_UNITS>
nM

> <Molecular_Weight>
316.3963

$$$$

  SciTegic11272012012D

 30 33  0  0  0  0            999 V2000
    2.1455    0.2461    0.0000 C   0  0
    2.1445   -0.4139    0.0000 C   0  0
    2.8583   -0.8275    0.0000 C   0  0
    2.8570   -1.6525    0.0000 C   0  0
    2.1419   -2.0639    0.0000 N   0  0
    1.4281   -1.6502    0.0000 C   0  0
    1.4293   -0.8252    0.0000 C   0  0
    0.7144   -0.4125    0.0000 C   0  0
    0.7144    0.4125    0.0000 C   0  0
    0.0000    0.8250    0.0000 C   0  0
    0.0000    1.6500    0.0000 C   0  0
   -0.7145    2.0625    0.0000 N   0  0
   -1.4290    1.6500    0.0000 C   0  0
   -2.1447    2.0612    0.0000 N   0  0
   -2.8590    1.6475    0.0000 C   0  0
   -2.8578    0.9875    0.0000 O   0  0
   -3.5747    2.0588    0.0000 C   0  0
   -3.9436    2.7481    0.0000 C   0  0
   -4.3561    2.0337    0.0000 C   0  0
   -4.9223    1.6946    0.0000 F   0  0
   -1.4290    0.8250    0.0000 C   0  0
   -0.7144    0.4125    0.0000 C   0  0
   -0.7144   -0.4125    0.0000 C   0  0
    0.0000   -0.8250    0.0000 N   0  0
    3.5712   -2.0663    0.0000 C   0  0
    3.5699   -2.7264    0.0000 C   0  0
    4.1421   -2.3976    0.0000 C   0  0
    4.2870   -1.6552    0.0000 O   0  0
    4.7628   -1.9310    0.0000 H   0  0
   -2.1457    2.6112    0.0000 H   0  0
  1  2  1  0
  2  3  2  0
  3  4  1  0
  4  5  2  0
  4 25  1  0
  5  6  1  0
  6  7  2  0
  7  2  1  0
  7  8  1  0
  8  9  2  0
  9 10  1  0
 10 11  2  0
 11 12  1  0
 12 13  2  0
 13 14  1  0
 13 21  1  0
 14 15  1  0
 14 30  1  0
 15 16  2  0
 15 17  1  0
 17 18  1  0
 18 19  1  0
 19 17  1  0
 19 20  1  0
 21 22  2  0
 22 10  1  0
 22 23  1  0
 23 24  2  0
 24  8  1  0
 25 26  1  0
 25 27  1  0
 25 28  1  0
 28 29  1  0
M  END
> <CMPD_CHEMBLID>
CHEMBL3689740

> <STANDARD_TYPE>
Ki

> <RELATION>
=

> <STANDARD_VALUE>
0.218

> <STANDARD_UNITS>
nM

> <Molecular_Weight>
380.41544

$$$$

  SciTegic11272012012D

 26 29  0  0  0  0            999 V2000
    3.4281   -1.9834    0.0000 F   0  0
    2.8570   -1.6525    0.0000 C   0  0
    2.8583   -0.8275    0.0000 C   0  0
    2.1445   -0.4139    0.0000 C   0  0
    2.1456    0.2461    0.0000 F   0  0
    1.4293   -0.8252    0.0000 C   0  0
    1.4281   -1.6502    0.0000 C   0  0
    0.8560   -1.9794    0.0000 Cl  0  0
    2.1419   -2.0639    0.0000 C   0  0
    0.7145   -0.4125    0.0000 C   0  0
    0.7145    0.4125    0.0000 C   0  0
    0.0000    0.8250    0.0000 C   0  0
   -0.7145    0.4125    0.0000 C   0  0
   -1.4290    0.8250    0.0000 C   0  0
   -2.1434    0.4125    0.0000 C   0  0
   -2.8592    0.8237    0.0000 N   0  0
   -3.5735    0.4100    0.0000 C   0  0
   -3.5723   -0.2500    0.0000 O   0  0
   -4.2892    0.8213    0.0000 C   0  0
   -5.0706    0.7961    0.0000 C   0  0
   -4.6581    1.5106    0.0000 C   0  0
   -2.1434   -0.4125    0.0000 N   0  0
   -1.4290   -0.8250    0.0000 C   0  0
   -0.7145   -0.4125    0.0000 C   0  0
    0.0000   -0.8250    0.0000 C   0  0
   -2.8601    1.3738    0.0000 H   0  0
  1  2  1  0
  2  3  2  0
  3  4  1  0
  4  5  1  0
  4  6  2  0
  6  7  1  0
  6 10  1  0
  7  8  1  0
  7  9  2  0
  9  2  1  0
 10 11  2  0
 11 12  1  0
 12 13  2  0
 13 14  1  0
 14 15  2  0
 15 16  1  0
 15 22  1  0
 16 17  1  0
 16 26  1  0
 17 18  2  0
 17 19  1  0
 19 20  1  0
 20 21  1  0
 21 19  1  0
 22 23  2  0
 23 24  1  0
 24 13  1  0
 24 25  2  0
 25 10  1  0
M  END
> <CMPD_CHEMBLID>
CHEMBL3689694

> <STANDARD_TYPE>
Ki

> <RELATION>
=

> <STANDARD_VALUE>
0.236

> <STANDARD_UNITS>
nM

> <Molecular_Weight>
358.76913

$$$$

  SciTegic11272012012D

 29 32  0  0  0  0            999 V2000
    0.1417   -1.7335    0.0000 C   0  0
    0.7134   -2.0634    0.0000 C   0  0
    0.7133   -2.8888    0.0000 O   0  0
    1.4281   -1.6503    0.0000 C   0  0
    2.1419   -2.0639    0.0000 N   0  0
    2.8570   -1.6525    0.0000 C   0  0
    2.8584   -0.8275    0.0000 C   0  0
    2.1446   -0.4139    0.0000 C   0  0
    2.1456    0.2461    0.0000 C   0  0
    1.4293   -0.8252    0.0000 C   0  0
    0.7145   -0.4125    0.0000 C   0  0
    0.7145    0.4125    0.0000 C   0  0
    0.0000    0.8250    0.0000 C   0  0
   -0.7145    0.4125    0.0000 C   0  0
   -1.4290    0.8250    0.0000 C   0  0
   -2.1435    0.4125    0.0000 C   0  0
   -2.8592    0.8238    0.0000 N   0  0
   -3.5735    0.4100    0.0000 C   0  0
   -3.5723   -0.2500    0.0000 O   0  0
   -4.2892    0.8213    0.0000 C   0  0
   -4.6582    1.5106    0.0000 C   0  0
   -5.0707    0.7961    0.0000 C   0  0
   -5.6369    0.4571    0.0000 F   0  0
   -2.1435   -0.4125    0.0000 N   0  0
   -1.4290   -0.8250    0.0000 C   0  0
   -0.7145   -0.4125    0.0000 C   0  0
    0.0000   -0.8250    0.0000 C   0  0
   -2.8602    1.3738    0.0000 H   0  0
    0.2371   -3.1641    0.0000 H   0  0
  1  2  1  0
  2  3  1  0
  2  4  1  0
  3 29  1  0
  4  5  2  0
  5  6  1  0
  6  7  2  0
  7  8  1  0
  8  9  1  0
  8 10  2  0
 10  4  1  0
 10 11  1  0
 11 12  2  0
 12 13  1  0
 13 14  2  0
 14 15  1  0
 15 16  2  0
 16 17  1  0
 16 24  1  0
 17 18  1  0
 17 28  1  0
 18 19  2  0
 18 20  1  0
 20 21  1  0
 21 22  1  0
 22 20  1  0
 22 23  1  0
 24 25  2  0
 25 26  1  0
 26 14  1  0
 26 27  2  0
 27 11  1  0
M  END
> <CMPD_CHEMBLID>
CHEMBL3689732

> <STANDARD_TYPE>
Ki

> <RELATION>
=

> <STANDARD_VALUE>
0.246

> <STANDARD_UNITS>
nM

> <Molecular_Weight>
365.4008

$$$$

  SciTegic11272012012D

 41 45  0  0  0  0            999 V2000
   -6.8803   -2.7055    0.0000 C   0  0
   -6.7274   -3.3476    0.0000 O   0  0
   -5.9365   -3.5839    0.0000 C   0  0
   -5.7442   -4.3862    0.0000 C   0  0
   -4.9533   -4.6207    0.0000 C   0  0
   -4.3546   -4.0531    0.0000 C   0  0
   -3.5627   -4.2862    0.0000 N   0  0
   -2.9646   -3.7174    0.0000 C   0  0
   -3.1195   -3.0758    0.0000 O   0  0
   -2.1727   -3.9505    0.0000 N   0  0
   -1.5745   -3.3817    0.0000 C   0  0
   -0.7828   -3.6135    0.0000 C   0  0
   -0.1861   -3.0437    0.0000 C   0  0
   -0.3810   -2.2449    0.0000 C   0  0
   -1.1730   -2.0103    0.0000 C   0  0
   -1.7696   -2.5800    0.0000 C   0  0
    0.1713   -1.6316    0.0000 C   0  0
    0.9918   -1.7178    0.0000 C   0  0
    1.3273   -0.9641    0.0000 S   0  0
    0.7144   -0.4125    0.0000 C   0  0
    0.7144    0.4125    0.0000 C   0  0
    0.0000    0.8250    0.0000 C   0  0
   -0.7144    0.4125    0.0000 N   0  0
   -0.7144   -0.4125    0.0000 C   0  0
   -1.4302   -0.8238    0.0000 N   0  0
    0.0000   -0.8250    0.0000 C   0  0
    1.4293    0.8252    0.0000 C   0  0
    2.1731    0.4848    0.0000 C   0  0
    2.7241    1.0988    0.0000 N   0  0
    2.3105    1.8126    0.0000 N   0  0
    2.6429    2.5666    0.0000 C   0  0
    2.1557    3.2329    0.0000 C   0  0
    2.4887    3.9882    0.0000 O   0  0
    1.5038    1.6398    0.0000 C   0  0
   -4.5469   -3.2508    0.0000 C   0  0
   -5.3379   -3.0162    0.0000 C   0  0
    2.1641    4.4323    0.0000 H   0  0
   -1.9061   -0.5481    0.0000 H   0  0
   -1.4311   -1.3738    0.0000 H   0  0
   -2.0436   -4.4851    0.0000 H   0  0
   -3.4336   -4.8208    0.0000 H   0  0
  1  2  1  0
  2  3  1  0
  3  4  2  0
  4  5  1  0
  5  6  2  0
  6  7  1  0
  6 35  1  0
  7  8  1  0
  7 41  1  0
  8  9  2  0
  8 10  1  0
 10 11  1  0
 10 40  1  0
 11 12  2  0
 12 13  1  0
 13 14  2  0
 14 15  1  0
 14 17  1  0
 15 16  2  0
 16 11  1  0
 17 18  2  0
 18 19  1  0
 19 20  1  0
 20 21  2  0
 21 22  1  0
 21 27  1  0
 22 23  2  0
 23 24  1  0
 24 25  1  0
 24 26  2  0
 25 38  1  0
 25 39  1  0
 26 17  1  0
 26 20  1  0
 27 28  1  0
 28 29  2  0
 29 30  1  0
 30 31  1  0
 30 34  1  0
 31 32  1  0
 32 33  1  0
 33 37  1  0
 34 27  2  0
 35 36  2  0
 36  3  1  0
M  END
> <CMPD_CHEMBLID>
CHEMBL1977148

> <STANDARD_TYPE>
Ki

> <RELATION>
=

> <STANDARD_VALUE>
0.251

> <STANDARD_UNITS>
nM

> <Molecular_Weight>
500.57216

$$$$

  SciTegic11272012012D

 32 35  0  0  0  0            999 V2000
    0.8560   -1.9794    0.0000 C   0  0
    1.4281   -1.6502    0.0000 C   0  0
    2.1419   -2.0639    0.0000 C   0  0
    2.8570   -1.6525    0.0000 C   0  0
    2.8583   -0.8275    0.0000 N   0  0
    2.1445   -0.4139    0.0000 C   0  0
    2.1475    0.4116    0.0000 C   0  0
    1.4332    0.8253    0.0000 O   0  0
    2.8636    0.8221    0.0000 C   0  0
    2.8661    1.4822    0.0000 F   0  0
    3.4364    1.1501    0.0000 F   0  0
    3.4341    0.4902    0.0000 F   0  0
    1.4293   -0.8252    0.0000 C   0  0
    0.7145   -0.4125    0.0000 C   0  0
    0.7145    0.4125    0.0000 C   0  0
    0.0000    0.8250    0.0000 C   0  0
   -0.7145    0.4125    0.0000 C   0  0
   -1.4290    0.8250    0.0000 C   0  0
   -2.1434    0.4125    0.0000 C   0  0
   -2.8591    0.8237    0.0000 N   0  0
   -3.5734    0.4100    0.0000 C   0  0
   -3.5723   -0.2500    0.0000 O   0  0
   -4.2891    0.8213    0.0000 C   0  0
   -4.6581    1.5106    0.0000 C   0  0
   -5.0706    0.7961    0.0000 C   0  0
   -5.6368    0.4571    0.0000 F   0  0
   -2.1434   -0.4125    0.0000 N   0  0
   -1.4290   -0.8250    0.0000 C   0  0
   -0.7145   -0.4125    0.0000 C   0  0
    0.0000   -0.8250    0.0000 C   0  0
   -2.8601    1.3737    0.0000 H   0  0
    0.9563    0.5512    0.0000 H   0  0
  1  2  1  0
  2  3  2  0
  3  4  1  0
  4  5  2  0
  5  6  1  0
  6  7  1  0
  6 13  2  0
  7  8  1  0
  7  9  1  0
  8 32  1  0
  9 10  1  0
  9 11  1  0
  9 12  1  0
 13  2  1  0
 13 14  1  0
 14 15  2  0
 15 16  1  0
 16 17  2  0
 17 18  1  0
 18 19  2  0
 19 20  1  0
 19 27  1  0
 20 21  1  0
 20 31  1  0
 21 22  2  0
 21 23  1  0
 23 24  1  0
 24 25  1  0
 25 23  1  0
 25 26  1  0
 27 28  2  0
 28 29  1  0
 29 17  1  0
 29 30  2  0
 30 14  1  0
M  END
> <CMPD_CHEMBLID>
CHEMBL3689731

> <STANDARD_TYPE>
Ki

> <RELATION>
=

> <STANDARD_VALUE>
0.265

> <STANDARD_UNITS>
nM

> <Molecular_Weight>
419.37219

$$$$

  SciTegic11272012012D

 31 34  0  0  0  0            999 V2000
    2.1456    0.2461    0.0000 C   0  0
    2.1446   -0.4139    0.0000 C   0  0
    2.8584   -0.8275    0.0000 C   0  0
    3.4305   -0.4984    0.0000 F   0  0
    2.8570   -1.6525    0.0000 C   0  0
    2.1419   -2.0639    0.0000 N   0  0
    1.4281   -1.6503    0.0000 C   0  0
    1.4293   -0.8252    0.0000 C   0  0
    0.7145   -0.4125    0.0000 C   0  0
    0.7145    0.4125    0.0000 C   0  0
    0.0000    0.8250    0.0000 C   0  0
   -0.7145    0.4125    0.0000 C   0  0
   -1.4290    0.8250    0.0000 C   0  0
   -2.1435    0.4125    0.0000 C   0  0
   -2.8592    0.8238    0.0000 N   0  0
   -3.5735    0.4100    0.0000 C   0  0
   -3.5723   -0.2500    0.0000 O   0  0
   -4.2892    0.8213    0.0000 C   0  0
   -4.6582    1.5106    0.0000 C   0  0
   -5.0707    0.7961    0.0000 C   0  0
   -5.6369    0.4571    0.0000 F   0  0
   -2.1435   -0.4125    0.0000 N   0  0
   -1.4290   -0.8250    0.0000 C   0  0
   -0.7145   -0.4125    0.0000 C   0  0
    0.0000   -0.8250    0.0000 C   0  0
    3.5713   -2.0664    0.0000 C   0  0
    3.5700   -2.7264    0.0000 C   0  0
    4.1422   -2.3976    0.0000 C   0  0
    4.2871   -1.6553    0.0000 O   0  0
    4.7629   -1.9310    0.0000 H   0  0
   -2.8602    1.3738    0.0000 H   0  0
  1  2  1  0
  2  3  2  0
  3  4  1  0
  3  5  1  0
  5  6  2  0
  5 26  1  0
  6  7  1  0
  7  8  2  0
  8  2  1  0
  8  9  1  0
  9 10  2  0
 10 11  1  0
 11 12  2  0
 12 13  1  0
 13 14  2  0
 14 15  1  0
 14 22  1  0
 15 16  1  0
 15 31  1  0
 16 17  2  0
 16 18  1  0
 18 19  1  0
 19 20  1  0
 20 18  1  0
 20 21  1  0
 22 23  2  0
 23 24  1  0
 24 12  1  0
 24 25  2  0
 25  9  1  0
 26 27  1  0
 26 28  1  0
 26 29  1  0
 29 30  1  0
M  END
> <CMPD_CHEMBLID>
CHEMBL3689721

> <STANDARD_TYPE>
Ki

> <RELATION>
=

> <STANDARD_VALUE>
0.268

> <STANDARD_UNITS>
nM

> <Molecular_Weight>
397.41785

$$$$

  SciTegic11272012012D

 24 27  0  0  0  0            999 V2000
    2.1455    0.2461    0.0000 Cl  0  0
    2.1445   -0.4139    0.0000 C   0  0
    2.8583   -0.8275    0.0000 C   0  0
    2.8570   -1.6525    0.0000 C   0  0
    2.1419   -2.0639    0.0000 C   0  0
    1.4281   -1.6502    0.0000 C   0  0
    1.4293   -0.8252    0.0000 C   0  0
    0.7144   -0.4125    0.0000 C   0  0
    0.7144    0.4125    0.0000 C   0  0
    0.0000    0.8250    0.0000 C   0  0
    0.0000    1.6500    0.0000 C   0  0
   -0.7145    2.0625    0.0000 N   0  0
   -1.4290    1.6500    0.0000 C   0  0
   -2.1447    2.0612    0.0000 N   0  0
   -2.8590    1.6475    0.0000 C   0  0
   -2.8578    0.9875    0.0000 O   0  0
   -3.5747    2.0588    0.0000 C   0  0
   -4.3561    2.0337    0.0000 C   0  0
   -3.9436    2.7481    0.0000 C   0  0
   -1.4290    0.8250    0.0000 C   0  0
   -0.7144    0.4125    0.0000 C   0  0
   -0.7144   -0.4125    0.0000 C   0  0
    0.0000   -0.8250    0.0000 N   0  0
   -2.1457    2.6112    0.0000 H   0  0
  1  2  1  0
  2  3  2  0
  3  4  1  0
  4  5  2  0
  5  6  1  0
  6  7  2  0
  7  2  1  0
  7  8  1  0
  8  9  2  0
  9 10  1  0
 10 11  2  0
 11 12  1  0
 12 13  2  0
 13 14  1  0
 13 20  1  0
 14 15  1  0
 14 24  1  0
 15 16  2  0
 15 17  1  0
 17 18  1  0
 18 19  1  0
 19 17  1  0
 20 21  2  0
 21 10  1  0
 21 22  1  0
 22 23  2  0
 23  8  1  0
M  END
> <CMPD_CHEMBLID>
CHEMBL3689637

> <STANDARD_TYPE>
Ki

> <RELATION>
=

> <STANDARD_VALUE>
0.3

> <STANDARD_UNITS>
nM

> <Molecular_Weight>
323.77626

$$$$

  SciTegic11272012012D

 25 28  0  0  0  0            999 V2000
    0.8560   -1.9794    0.0000 C   0  0
    1.4281   -1.6502    0.0000 C   0  0
    2.1419   -2.0639    0.0000 C   0  0
    2.8570   -1.6525    0.0000 C   0  0
    2.8583   -0.8275    0.0000 N   0  0
    2.1445   -0.4139    0.0000 C   0  0
    2.1456    0.2461    0.0000 C   0  0
    1.4293   -0.8252    0.0000 C   0  0
    0.7145   -0.4125    0.0000 C   0  0
    0.7145    0.4125    0.0000 C   0  0
    0.0000    0.8250    0.0000 C   0  0
   -0.7145    0.4125    0.0000 C   0  0
   -1.4290    0.8250    0.0000 C   0  0
   -2.1434    0.4125    0.0000 C   0  0
   -2.8592    0.8237    0.0000 N   0  0
   -3.5735    0.4100    0.0000 C   0  0
   -3.5723   -0.2500    0.0000 O   0  0
   -4.2892    0.8213    0.0000 C   0  0
   -5.0707    0.7961    0.0000 C   0  0
   -4.6581    1.5106    0.0000 C   0  0
   -2.1434   -0.4125    0.0000 N   0  0
   -1.4290   -0.8250    0.0000 C   0  0
   -0.7145   -0.4125    0.0000 C   0  0
    0.0000   -0.8250    0.0000 C   0  0
   -2.8602    1.3738    0.0000 H   0  0
  1  2  1  0
  2  3  2  0
  3  4  1  0
  4  5  2  0
  5  6  1  0
  6  7  1  0
  6  8  2  0
  8  2  1  0
  8  9  1  0
  9 10  2  0
 10 11  1  0
 11 12  2  0
 12 13  1  0
 13 14  2  0
 14 15  1  0
 14 21  1  0
 15 16  1  0
 15 25  1  0
 16 17  2  0
 16 18  1  0
 18 19  1  0
 19 20  1  0
 20 18  1  0
 21 22  2  0
 22 23  1  0
 23 12  1  0
 23 24  2  0
 24  9  1  0
M  END
> <CMPD_CHEMBLID>
CHEMBL3685080

> <STANDARD_TYPE>
Ki

> <RELATION>
=

> <STANDARD_VALUE>
0.3

> <STANDARD_UNITS>
nM

> <Molecular_Weight>
317.38436

$$$$

  SciTegic11272012012D

 27 30  0  0  0  0            999 V2000
    2.1455    0.2461    0.0000 C   0  0
    2.1445   -0.4139    0.0000 C   0  0
    2.8583   -0.8275    0.0000 C   0  0
    2.8570   -1.6525    0.0000 C   0  0
    2.1419   -2.0639    0.0000 C   0  0
    2.1408   -2.7239    0.0000 F   0  0
    1.4281   -1.6502    0.0000 C   0  0
    1.4293   -0.8252    0.0000 C   0  0
    0.7144   -0.4125    0.0000 C   0  0
    0.7144    0.4125    0.0000 C   0  0
    0.0000    0.8250    0.0000 C   0  0
    0.0000    1.6500    0.0000 C   0  0
   -0.7145    2.0625    0.0000 N   0  0
   -1.4290    1.6500    0.0000 C   0  0
   -2.1447    2.0612    0.0000 N   0  0
   -2.8590    1.6475    0.0000 C   0  0
   -2.8578    0.9875    0.0000 O   0  0
   -3.5747    2.0588    0.0000 C   0  0
   -4.3561    2.0337    0.0000 C   0  0
   -3.9436    2.7481    0.0000 C   0  0
   -1.4290    0.8250    0.0000 C   0  0
   -0.7144    0.4125    0.0000 C   0  0
   -0.7144   -0.4125    0.0000 C   0  0
   -1.2861   -0.7425    0.0000 C   0  0
    0.0000   -0.8250    0.0000 N   0  3
    0.0000   -1.4850    0.0000 O   0  5
   -2.1457    2.6112    0.0000 H   0  0
  1  2  1  0
  2  3  2  0
  3  4  1  0
  4  5  2  0
  5  6  1  0
  5  7  1  0
  7  8  2  0
  8  2  1  0
  8  9  1  0
  9 10  2  0
 10 11  1  0
 11 12  2  0
 12 13  1  0
 13 14  2  0
 14 15  1  0
 14 21  1  0
 15 16  1  0
 15 27  1  0
 16 17  2  0
 16 18  1  0
 18 19  1  0
 19 20  1  0
 20 18  1  0
 21 22  2  0
 22 11  1  0
 22 23  1  0
 23 24  1  0
 23 25  2  0
 25  9  1  0
 25 26  1  0
M  CHG  2  25   1  26  -1
M  END
> <CMPD_CHEMBLID>
CHEMBL3689647

> <STANDARD_TYPE>
Ki

> <RELATION>
=

> <STANDARD_VALUE>
0.3

> <STANDARD_UNITS>
nM

> <Molecular_Weight>
351.37422

$$$$

  SciTegic11272012012D

 25 28  0  0  0  0            999 V2000
    2.1456    0.2461    0.0000 C   0  0
    2.1445   -0.4139    0.0000 C   0  0
    2.8583   -0.8275    0.0000 C   0  0
    2.8570   -1.6525    0.0000 C   0  0
    3.4281   -1.9834    0.0000 F   0  0
    2.1419   -2.0639    0.0000 C   0  0
    1.4281   -1.6502    0.0000 C   0  0
    1.4293   -0.8252    0.0000 C   0  0
    0.7145   -0.4125    0.0000 C   0  0
    0.7145    0.4125    0.0000 C   0  0
    0.0000    0.8250    0.0000 C   0  0
   -0.7145    0.4125    0.0000 C   0  0
   -1.4290    0.8250    0.0000 C   0  0
   -2.1434    0.4125    0.0000 C   0  0
   -2.8592    0.8237    0.0000 N   0  0
   -3.5735    0.4100    0.0000 C   0  0
   -3.5723   -0.2500    0.0000 O   0  0
   -4.2892    0.8213    0.0000 C   0  0
   -5.0706    0.7961    0.0000 C   0  0
   -4.6581    1.5106    0.0000 C   0  0
   -2.1434   -0.4125    0.0000 N   0  0
   -1.4290   -0.8250    0.0000 C   0  0
   -0.7145   -0.4125    0.0000 C   0  0
    0.0000   -0.8250    0.0000 C   0  0
   -2.8601    1.3738    0.0000 H   0  0
  1  2  1  0
  2  3  2  0
  3  4  1  0
  4  5  1  0
  4  6  2  0
  6  7  1  0
  7  8  2  0
  8  2  1  0
  8  9  1  0
  9 10  2  0
 10 11  1  0
 11 12  2  0
 12 13  1  0
 13 14  2  0
 14 15  1  0
 14 21  1  0
 15 16  1  0
 15 25  1  0
 16 17  2  0
 16 18  1  0
 18 19  1  0
 19 20  1  0
 20 18  1  0
 21 22  2  0
 22 23  1  0
 23 12  1  0
 23 24  2  0
 24  9  1  0
M  END
> <CMPD_CHEMBLID>
CHEMBL3685016

> <STANDARD_TYPE>
Ki

> <RELATION>
=

> <STANDARD_VALUE>
0.3

> <STANDARD_UNITS>
nM

> <Molecular_Weight>
320.36018

$$$$

  SciTegic11272012012D

 34 38  0  0  0  0            999 V2000
    2.1456    0.2461    0.0000 C   0  0
    2.1445   -0.4139    0.0000 C   0  0
    2.8583   -0.8275    0.0000 C   0  0
    2.8570   -1.6525    0.0000 C   0  0
    2.1419   -2.0639    0.0000 C   0  0
    2.1389   -2.8894    0.0000 N   0  0
    1.4228   -3.2999    0.0000 C   0  0
    0.8523   -2.9681    0.0000 O   0  0
    1.4198   -4.1254    0.0000 C   0  0
    0.7034   -4.5359    0.0000 O   0  0
    2.1730   -3.8888    0.0000 C   0  0
    2.3837   -4.6865    0.0000 C   0  0
    1.5861   -4.8972    0.0000 C   0  0
    1.4281   -1.6502    0.0000 C   0  0
    1.4293   -0.8252    0.0000 C   0  0
    0.7145   -0.4125    0.0000 C   0  0
    0.7145    0.4125    0.0000 C   0  0
    0.0000    0.8250    0.0000 C   0  0
   -0.7145    0.4125    0.0000 C   0  0
   -1.4290    0.8250    0.0000 C   0  0
   -2.1434    0.4125    0.0000 C   0  0
   -2.8592    0.8237    0.0000 N   0  0
   -3.5735    0.4100    0.0000 C   0  0
   -3.5723   -0.2500    0.0000 O   0  0
   -4.2892    0.8213    0.0000 C   0  0
   -5.0707    0.7961    0.0000 C   0  0
   -4.6581    1.5106    0.0000 C   0  0
   -2.1434   -0.4125    0.0000 N   0  0
   -1.4290   -0.8250    0.0000 C   0  0
   -0.7145   -0.4125    0.0000 C   0  0
    0.0000   -0.8250    0.0000 C   0  0
   -2.8602    1.3738    0.0000 H   0  0
    0.7012   -5.0859    0.0000 H   0  0
    2.6143   -3.1660    0.0000 H   0  0
  1  2  1  0
  2  3  2  0
  3  4  1  0
  4  5  2  0
  5  6  1  0
  5 14  1  0
  6  7  1  0
  6 34  1  0
  7  8  2  0
  7  9  1  0
  9 10  1  0
  9 11  1  0
 10 33  1  0
 11 12  1  0
 12 13  1  0
 13  9  1  0
 14 15  2  0
 15  2  1  0
 15 16  1  0
 16 17  2  0
 17 18  1  0
 18 19  2  0
 19 20  1  0
 20 21  2  0
 21 22  1  0
 21 28  1  0
 22 23  1  0
 22 32  1  0
 23 24  2  0
 23 25  1  0
 25 26  1  0
 26 27  1  0
 27 25  1  0
 28 29  2  0
 29 30  1  0
 30 19  1  0
 30 31  2  0
 31 16  1  0
M  END
> <CMPD_CHEMBLID>
CHEMBL3689594

> <STANDARD_TYPE>
Ki

> <RELATION>
=

> <STANDARD_VALUE>
0.3

> <STANDARD_UNITS>
nM

> <Molecular_Weight>
415.4843

$$$$

  SciTegic11272012012D

 32 36  0  0  0  0            999 V2000
    2.1456    0.2461    0.0000 C   0  0
    2.1445   -0.4139    0.0000 C   0  0
    2.8583   -0.8275    0.0000 C   0  0
    2.8570   -1.6525    0.0000 C   0  0
    2.1419   -2.0639    0.0000 C   0  0
    2.1389   -2.8893    0.0000 N   0  0
    1.4227   -3.2999    0.0000 C   0  0
    0.8523   -2.9680    0.0000 O   0  0
    1.4198   -4.1254    0.0000 C   0  0
    0.8355   -4.6794    0.0000 C   0  0
    1.4180   -5.2637    0.0000 C   0  0
    2.0023   -4.6812    0.0000 C   0  0
    1.4281   -1.6502    0.0000 C   0  0
    1.4293   -0.8252    0.0000 C   0  0
    0.7145   -0.4125    0.0000 C   0  0
    0.7145    0.4125    0.0000 C   0  0
    0.0000    0.8250    0.0000 C   0  0
   -0.7145    0.4125    0.0000 C   0  0
   -1.4290    0.8250    0.0000 C   0  0
   -2.1434    0.4125    0.0000 C   0  0
   -2.8591    0.8237    0.0000 N   0  0
   -3.5734    0.4100    0.0000 C   0  0
   -3.5723   -0.2500    0.0000 O   0  0
   -4.2891    0.8213    0.0000 C   0  0
   -5.0706    0.7961    0.0000 C   0  0
   -4.6581    1.5106    0.0000 C   0  0
   -2.1434   -0.4125    0.0000 N   0  0
   -1.4290   -0.8250    0.0000 C   0  0
   -0.7145   -0.4125    0.0000 C   0  0
    0.0000   -0.8250    0.0000 C   0  0
   -2.8601    1.3737    0.0000 H   0  0
    2.6143   -3.1659    0.0000 H   0  0
  1  2  1  0
  2  3  2  0
  3  4  1  0
  4  5  2  0
  5  6  1  0
  5 13  1  0
  6  7  1  0
  6 32  1  0
  7  8  2  0
  7  9  1  0
  9 10  1  0
 10 11  1  0
 11 12  1  0
 12  9  1  0
 13 14  2  0
 14  2  1  0
 14 15  1  0
 15 16  2  0
 16 17  1  0
 17 18  2  0
 18 19  1  0
 19 20  2  0
 20 21  1  0
 20 27  1  0
 21 22  1  0
 21 31  1  0
 22 23  2  0
 22 24  1  0
 24 25  1  0
 25 26  1  0
 26 24  1  0
 27 28  2  0
 28 29  1  0
 29 18  1  0
 29 30  2  0
 30 15  1  0
M  END
> <CMPD_CHEMBLID>
CHEMBL3689540

> <STANDARD_TYPE>
Ki

> <RELATION>
=

> <STANDARD_VALUE>
0.3

> <STANDARD_UNITS>
nM

> <Molecular_Weight>
399.4849

$$$$

  SciTegic11272012012D

 24 27  0  0  0  0            999 V2000
    2.1455    0.2461    0.0000 C   0  0
    2.1445   -0.4139    0.0000 C   0  0
    2.8583   -0.8275    0.0000 C   0  0
    2.8570   -1.6525    0.0000 C   0  0
    2.1419   -2.0639    0.0000 N   0  0
    1.4281   -1.6502    0.0000 C   0  0
    1.4293   -0.8252    0.0000 C   0  0
    0.7144   -0.4125    0.0000 C   0  0
    0.7144    0.4125    0.0000 C   0  0
    0.0000    0.8250    0.0000 C   0  0
    0.0000    1.6500    0.0000 C   0  0
   -0.7145    2.0625    0.0000 N   0  0
   -1.4290    1.6500    0.0000 C   0  0
   -2.1447    2.0612    0.0000 N   0  0
   -2.8590    1.6475    0.0000 C   0  0
   -2.8578    0.9875    0.0000 O   0  0
   -3.5747    2.0588    0.0000 C   0  0
   -4.3561    2.0337    0.0000 C   0  0
   -3.9436    2.7481    0.0000 C   0  0
   -1.4290    0.8250    0.0000 C   0  0
   -0.7144    0.4125    0.0000 C   0  0
   -0.7144   -0.4125    0.0000 C   0  0
    0.0000   -0.8250    0.0000 N   0  0
   -2.1457    2.6112    0.0000 H   0  0
  1  2  1  0
  2  3  2  0
  3  4  1  0
  4  5  2  0
  5  6  1  0
  6  7  2  0
  7  2  1  0
  7  8  1  0
  8  9  2  0
  9 10  1  0
 10 11  2  0
 11 12  1  0
 12 13  2  0
 13 14  1  0
 13 20  1  0
 14 15  1  0
 14 24  1  0
 15 16  2  0
 15 17  1  0
 17 18  1  0
 18 19  1  0
 19 17  1  0
 20 21  2  0
 21 10  1  0
 21 22  1  0
 22 23  2  0
 23  8  1  0
M  END
> <CMPD_CHEMBLID>
CHEMBL3689645

> <STANDARD_TYPE>
Ki

> <RELATION>
=

> <STANDARD_VALUE>
0.3

> <STANDARD_UNITS>
nM

> <Molecular_Weight>
304.34584

$$$$

  SciTegic11272012012D

 40 44  0  0  0  0            999 V2000
    0.1322   -4.2065    0.0000 C   0  0
    0.7027   -4.5383    0.0000 N   0  0
    0.6999   -5.3638    0.0000 C   0  0
   -0.0162   -5.7745    0.0000 C   0  0
   -0.0190   -6.5999    0.0000 N   0  0
   -0.6871   -7.0719    0.0000 C   0  0
   -0.4333   -7.8569    0.0000 C   0  0
    0.3917   -7.8580    0.0000 C   0  0
    0.6478   -7.0737    0.0000 C   0  0
    1.4187   -4.1276    0.0000 S   0  0
    1.4168   -4.7876    0.0000 O   0  0
    1.9893   -4.4594    0.0000 O   0  0
    1.4216   -3.3022    0.0000 C   0  0
    2.1375   -2.8922    0.0000 C   0  0
    2.1403   -2.0672    0.0000 C   0  0
    1.4273   -1.6521    0.0000 C   0  0
    1.4285   -0.8267    0.0000 N   0  0
    0.7144   -0.4125    0.0000 C   0  0
    0.7144    0.4125    0.0000 N   0  0
    0.0000    0.8250    0.0000 N   0  0
   -0.7144    0.4125    0.0000 C   0  0
   -1.4289    0.8250    0.0000 C   0  0
   -2.1434    0.4125    0.0000 C   0  0
   -2.1434   -0.4125    0.0000 C   0  0
   -1.4289   -0.8250    0.0000 C   0  0
   -1.4289   -1.4850    0.0000 C   0  0
   -0.7144   -0.4125    0.0000 C   0  0
    0.0000   -0.8250    0.0000 N   0  0
   -2.8582    0.8252    0.0000 C   0  0
   -3.5721    0.4116    0.0000 C   0  0
   -4.2872    0.8230    0.0000 C   0  0
   -5.0023    0.4106    0.0000 O   0  0
   -4.2885    1.6480    0.0000 C   0  0
   -3.5747    2.0616    0.0000 C   0  0
   -2.8596    1.6502    0.0000 C   0  0
   -2.2885    1.9811    0.0000 Cl  0  0
    0.7114   -2.0622    0.0000 C   0  0
    0.7086   -2.8872    0.0000 C   0  0
   -5.4786    0.6855    0.0000 H   0  0
    1.9053   -0.5525    0.0000 H   0  0
  1  2  1  0
  2  3  1  0
  2 10  1  0
  3  4  1  0
  4  5  1  0
  5  6  1  0
  6  7  1  0
  7  8  1  0
  8  9  1  0
  9  5  1  0
 10 11  2  0
 10 12  2  0
 10 13  1  0
 13 14  2  0
 14 15  1  0
 15 16  2  0
 16 17  1  0
 16 37  1  0
 17 18  1  0
 17 40  1  0
 18 19  2  0
 19 20  1  0
 20 21  2  0
 21 22  1  0
 22 23  2  0
 23 24  1  0
 23 29  1  0
 24 25  2  0
 25 26  1  0
 25 27  1  0
 27 21  1  0
 27 28  2  0
 28 18  1  0
 29 30  2  0
 30 31  1  0
 31 32  1  0
 31 33  2  0
 32 39  1  0
 33 34  1  0
 34 35  2  0
 35 29  1  0
 35 36  1  0
 37 38  2  0
 38 13  1  0
M  END
> <CMPD_CHEMBLID>
CHEMBL250019

> <STANDARD_TYPE>
Ki

> <RELATION>
=

> <STANDARD_VALUE>
0.3

> <STANDARD_UNITS>
nM

> <Molecular_Weight>
553.07556

$$$$

  SciTegic11272012012D

 26 29  0  0  0  0            999 V2000
    2.0013   -0.4930    0.0000 C   0  0
    1.4302   -0.8237    0.0000 C   0  0
    0.7144   -0.4125    0.0000 C   0  0
    0.7144    0.4125    0.0000 N   0  0
    0.0000    0.8250    0.0000 C   0  0
   -0.7144    0.4125    0.0000 C   0  0
   -0.7144   -0.4125    0.0000 C   0  0
   -1.4290   -0.8250    0.0000 C   0  0
   -1.4290   -1.6500    0.0000 N   0  0
   -0.7144   -2.0625    0.0000 C   0  0
   -0.7127   -2.8879    0.0000 N   0  0
    0.0027   -3.2997    0.0000 C   0  0
    0.5737   -2.9687    0.0000 O   0  0
    0.0044   -4.1251    0.0000 C   0  0
    0.4168   -4.7893    0.0000 C   0  0
   -0.4082   -4.7893    0.0000 C   0  0
    0.0000   -1.6500    0.0000 C   0  0
    0.0000   -0.8250    0.0000 C   0  0
    0.0000    1.6504    0.0000 C   0  0
   -0.7151    2.0618    0.0000 C   0  0
   -0.7164    2.8868    0.0000 C   0  0
   -0.0026    3.3005    0.0000 C   0  0
    0.7125    2.8891    0.0000 C   0  0
    0.7138    2.0641    0.0000 C   0  0
    1.2859    1.7350    0.0000 Cl  0  0
   -1.1886   -3.1638    0.0000 H   0  0
  1  2  1  0
  2  3  1  0
  3  4  2  0
  4  5  1  0
  5  6  2  0
  5 19  1  0
  6  7  1  0
  7  8  2  0
  8  9  1  0
  9 10  2  0
 10 11  1  0
 10 17  1  0
 11 12  1  0
 11 26  1  0
 12 13  2  0
 12 14  1  0
 14 15  1  0
 15 16  1  0
 16 14  1  0
 17 18  2  0
 18  3  1  0
 18  7  1  0
 19 20  2  0
 20 21  1  0
 21 22  2  0
 22 23  1  0
 23 24  2  0
 24 19  1  0
 24 25  1  0
M  END
> <CMPD_CHEMBLID>
CHEMBL3689642

> <STANDARD_TYPE>
Ki

> <RELATION>
=

> <STANDARD_VALUE>
0.3

> <STANDARD_UNITS>
nM

> <Molecular_Weight>
351.82942

$$$$

  SciTegic11272012012D

 25 27  0  0  0  0            999 V2000
    2.7111   -3.2230    0.0000 C   0  0
    2.1402   -2.8918    0.0000 O   0  0
    2.1413   -2.0663    0.0000 C   0  0
    1.4273   -1.6521    0.0000 C   0  0
    0.8551   -1.9812    0.0000 O   0  0
    1.4285   -0.8267    0.0000 N   0  0
    0.7144   -0.4125    0.0000 C   0  0
    0.7144    0.4125    0.0000 C   0  0
    0.0000    0.8250    0.0000 C   0  0
    0.0000    1.6500    0.0000 C   0  0
   -0.7145    2.0625    0.0000 C   0  0
   -1.4290    1.6500    0.0000 C   0  0
   -1.4290    0.8250    0.0000 C   0  0
   -0.7144    0.4125    0.0000 C   0  0
   -0.7144   -0.4125    0.0000 C   0  0
    0.0000   -0.8250    0.0000 N   0  0
   -2.1438    2.0627    0.0000 C   0  0
   -2.8576    1.6491    0.0000 C   0  0
   -3.5728    2.0605    0.0000 C   0  0
   -4.1438    1.7295    0.0000 F   0  0
   -3.5741    2.8855    0.0000 C   0  0
   -2.8603    3.2991    0.0000 C   0  0
   -2.1452    2.8877    0.0000 C   0  0
   -1.5741    3.2187    0.0000 C   0  0
    1.9053   -0.5525    0.0000 H   0  0
  1  2  1  0
  2  3  1  0
  3  4  1  0
  4  5  2  0
  4  6  1  0
  6  7  1  0
  6 25  1  0
  7  8  2  0
  8  9  1  0
  9 10  2  0
 10 11  1  0
 11 12  2  0
 12 13  1  0
 12 17  1  0
 13 14  2  0
 14  9  1  0
 14 15  1  0
 15 16  2  0
 16  7  1  0
 17 18  2  0
 18 19  1  0
 19 20  1  0
 19 21  2  0
 21 22  1  0
 22 23  2  0
 23 17  1  0
 23 24  1  0
M  END
> <CMPD_CHEMBLID>
CHEMBL3685044

> <STANDARD_TYPE>
Ki

> <RELATION>
=

> <STANDARD_VALUE>
0.3

> <STANDARD_UNITS>
nM

> <Molecular_Weight>
324.34888

$$$$

  SciTegic11272012012D

 39 43  0  0  0  0            999 V2000
    0.8460   -6.9309    0.0000 C   0  0
    1.4175   -6.6008    0.0000 C   0  0
    2.1323   -7.0137    0.0000 N   0  0
    2.1326   -7.6737    0.0000 C   0  0
    2.7038   -6.6837    0.0000 C   0  0
    1.4171   -5.7754    0.0000 C   0  0
    0.7033   -5.3617    0.0000 C   0  0
    0.7046   -4.5367    0.0000 C   0  0
    1.4198   -4.1253    0.0000 C   0  0
    2.1336   -4.5390    0.0000 C   0  0
    2.1322   -5.3640    0.0000 C   0  0
    1.4227   -3.2999    0.0000 C   0  0
    0.8523   -2.9680    0.0000 O   0  0
    2.1388   -2.8893    0.0000 N   0  0
    2.1419   -2.0639    0.0000 C   0  0
    2.8570   -1.6525    0.0000 C   0  0
    2.8583   -0.8275    0.0000 C   0  0
    2.1445   -0.4139    0.0000 C   0  0
    2.1455    0.2461    0.0000 C   0  0
    1.4293   -0.8252    0.0000 C   0  0
    1.4281   -1.6502    0.0000 C   0  0
    0.7144   -0.4125    0.0000 C   0  0
    0.7144    0.4125    0.0000 C   0  0
    0.0000    0.8250    0.0000 C   0  0
   -0.7144    0.4125    0.0000 C   0  0
   -1.4290    0.8250    0.0000 C   0  0
   -2.1434    0.4125    0.0000 C   0  0
   -2.8591    0.8237    0.0000 N   0  0
   -3.5734    0.4100    0.0000 C   0  0
   -3.5722   -0.2500    0.0000 O   0  0
   -4.2891    0.8213    0.0000 C   0  0
   -5.0706    0.7961    0.0000 C   0  0
   -4.6581    1.5106    0.0000 C   0  0
   -2.1434   -0.4125    0.0000 N   0  0
   -1.4290   -0.8250    0.0000 C   0  0
   -0.7144   -0.4125    0.0000 C   0  0
    0.0000   -0.8250    0.0000 C   0  0
   -2.8601    1.3737    0.0000 H   0  0
    2.6143   -3.1659    0.0000 H   0  0
  1  2  1  0
  2  3  1  0
  2  6  1  0
  3  4  1  0
  3  5  1  0
  6  7  2  0
  7  8  1  0
  8  9  2  0
  9 10  1  0
  9 12  1  0
 10 11  2  0
 11  6  1  0
 12 13  2  0
 12 14  1  0
 14 15  1  0
 14 39  1  0
 15 16  2  0
 16 17  1  0
 17 18  2  0
 18 19  1  0
 18 20  1  0
 20 21  2  0
 20 22  1  0
 21 15  1  0
 22 23  2  0
 23 24  1  0
 24 25  2  0
 25 26  1  0
 26 27  2  0
 27 28  1  0
 27 34  1  0
 28 29  1  0
 28 38  1  0
 29 30  2  0
 29 31  1  0
 31 32  1  0
 32 33  1  0
 33 31  1  0
 34 35  2  0
 35 36  1  0
 36 25  1  0
 36 37  2  0
 37 22  1  0
M  END
> <CMPD_CHEMBLID>
CHEMBL3685186

> <STANDARD_TYPE>
Ki

> <RELATION>
=

> <STANDARD_VALUE>
0.3

> <STANDARD_UNITS>
nM

> <Molecular_Weight>
492.61138

$$$$

  SciTegic11272012012D

 27 31  0  0  0  0            999 V2000
    0.8551   -1.9812    0.0000 O   0  0
    1.4273   -1.6521    0.0000 C   0  0
    1.4285   -0.8267    0.0000 N   0  0
    0.7144   -0.4125    0.0000 C   0  0
    0.7144    0.4125    0.0000 C   0  0
    0.0000    0.8250    0.0000 C   0  0
    0.0000    1.6500    0.0000 C   0  0
   -0.7145    2.0625    0.0000 C   0  0
   -1.4290    1.6500    0.0000 C   0  0
   -1.4290    0.8250    0.0000 C   0  0
   -0.7144    0.4125    0.0000 C   0  0
   -0.7144   -0.4125    0.0000 C   0  0
    0.0000   -0.8250    0.0000 N   0  0
   -2.1438    2.0627    0.0000 C   0  0
   -2.8576    1.6491    0.0000 C   0  0
   -3.5728    2.0605    0.0000 C   0  0
   -3.5741    2.8855    0.0000 C   0  0
   -2.8603    3.2991    0.0000 C   0  0
   -2.6903    4.1059    0.0000 N   0  0
   -1.8699    4.1935    0.0000 C   0  0
   -1.5332    3.4403    0.0000 C   0  0
   -2.1452    2.8877    0.0000 C   0  0
    2.1413   -2.0663    0.0000 C   0  0
    2.5103   -2.7557    0.0000 C   0  0
    2.9228   -2.0412    0.0000 C   0  0
   -3.0590    4.5140    0.0000 H   0  0
    1.9053   -0.5525    0.0000 H   0  0
  1  2  2  0
  2  3  1  0
  2 23  1  0
  3  4  1  0
  3 27  1  0
  4  5  2  0
  5  6  1  0
  6  7  2  0
  7  8  1  0
  8  9  2  0
  9 10  1  0
  9 14  1  0
 10 11  2  0
 11  6  1  0
 11 12  1  0
 12 13  2  0
 13  4  1  0
 14 15  2  0
 15 16  1  0
 16 17  2  0
 17 18  1  0
 18 19  1  0
 19 20  1  0
 19 26  1  0
 20 21  2  0
 21 22  1  0
 22 14  1  0
 22 18  2  0
 23 24  1  0
 24 25  1  0
 25 23  1  0
M  END
> <CMPD_CHEMBLID>
CHEMBL3685054

> <STANDARD_TYPE>
Ki

> <RELATION>
=

> <STANDARD_VALUE>
0.3

> <STANDARD_UNITS>
nM

> <Molecular_Weight>
327.37918

$$$$

  SciTegic11272012012D

 42 47  0  0  0  0            999 V2000
    4.1350   -8.1650    0.0000 C   0  0
    3.5628   -7.8361    0.0000 N   0  0
    2.8491   -8.2499    0.0000 C   0  0
    2.1338   -7.8387    0.0000 C   0  0
    2.1323   -7.0137    0.0000 N   0  0
    1.4175   -6.6008    0.0000 C   0  0
    1.4171   -5.7754    0.0000 C   0  0
    0.7033   -5.3617    0.0000 C   0  0
    0.7046   -4.5367    0.0000 C   0  0
    1.4198   -4.1253    0.0000 C   0  0
    2.1336   -4.5390    0.0000 C   0  0
    2.1322   -5.3640    0.0000 C   0  0
    1.4227   -3.2999    0.0000 C   0  0
    0.8523   -2.9680    0.0000 O   0  0
    2.1388   -2.8893    0.0000 N   0  0
    2.1419   -2.0639    0.0000 C   0  0
    2.8570   -1.6525    0.0000 C   0  0
    2.8583   -0.8275    0.0000 C   0  0
    2.1445   -0.4139    0.0000 C   0  0
    2.1455    0.2461    0.0000 C   0  0
    1.4293   -0.8252    0.0000 C   0  0
    1.4281   -1.6502    0.0000 C   0  0
    0.7144   -0.4125    0.0000 C   0  0
    0.7144    0.4125    0.0000 C   0  0
    0.0000    0.8250    0.0000 C   0  0
   -0.7144    0.4125    0.0000 C   0  0
   -1.4290    0.8250    0.0000 C   0  0
   -2.1434    0.4125    0.0000 C   0  0
   -2.8591    0.8237    0.0000 N   0  0
   -3.5734    0.4100    0.0000 C   0  0
   -3.5722   -0.2500    0.0000 O   0  0
   -4.2891    0.8213    0.0000 C   0  0
   -5.0706    0.7961    0.0000 C   0  0
   -4.6581    1.5106    0.0000 C   0  0
   -2.1434   -0.4125    0.0000 N   0  0
   -1.4290   -0.8250    0.0000 C   0  0
   -0.7144   -0.4125    0.0000 C   0  0
    0.0000   -0.8250    0.0000 C   0  0
    2.8460   -6.5999    0.0000 C   0  0
    3.5612   -7.0111    0.0000 C   0  0
   -2.8601    1.3737    0.0000 H   0  0
    2.6143   -3.1659    0.0000 H   0  0
  1  2  1  0
  2  3  1  0
  3  4  1  0
  4  5  1  0
  5  6  1  0
  5 39  1  0
  6  7  1  0
  7  8  2  0
  8  9  1  0
  9 10  2  0
 10 11  1  0
 10 13  1  0
 11 12  2  0
 12  7  1  0
 13 14  2  0
 13 15  1  0
 15 16  1  0
 15 42  1  0
 16 17  2  0
 17 18  1  0
 18 19  2  0
 19 20  1  0
 19 21  1  0
 21 22  2  0
 21 23  1  0
 22 16  1  0
 23 24  2  0
 24 25  1  0
 25 26  2  0
 26 27  1  0
 27 28  2  0
 28 29  1  0
 28 35  1  0
 29 30  1  0
 29 41  1  0
 30 31  2  0
 30 32  1  0
 32 33  1  0
 33 34  1  0
 34 32  1  0
 35 36  2  0
 36 37  1  0
 37 26  1  0
 37 38  2  0
 38 23  1  0
 39 40  1  0
 40  2  1  0
M  END
> <CMPD_CHEMBLID>
CHEMBL3685139

> <STANDARD_TYPE>
Ki

> <RELATION>
=

> <STANDARD_VALUE>
0.3

> <STANDARD_UNITS>
nM

> <Molecular_Weight>
533.6633

$$$$

  SciTegic11272012012D

 27 30  0  0  0  0            999 V2000
    2.7177    0.7410    0.0000 F   0  0
    2.1458    0.4116    0.0000 C   0  0
    1.5746    0.7423    0.0000 F   0  0
    2.1466    1.0716    0.0000 F   0  0
    2.1445   -0.4139    0.0000 C   0  0
    2.8583   -0.8275    0.0000 C   0  0
    2.8570   -1.6525    0.0000 C   0  0
    2.1419   -2.0639    0.0000 N   0  0
    1.4281   -1.6502    0.0000 C   0  0
    1.4293   -0.8252    0.0000 C   0  0
    0.7144   -0.4125    0.0000 C   0  0
    0.7144    0.4125    0.0000 C   0  0
    0.0000    0.8250    0.0000 C   0  0
   -0.7144    0.4125    0.0000 C   0  0
   -1.4290    0.8250    0.0000 C   0  0
   -2.1434    0.4125    0.0000 C   0  0
   -2.8591    0.8237    0.0000 N   0  0
   -3.5734    0.4100    0.0000 C   0  0
   -3.5722   -0.2500    0.0000 O   0  0
   -4.2891    0.8213    0.0000 C   0  0
   -5.0706    0.7961    0.0000 C   0  0
   -4.6581    1.5106    0.0000 C   0  0
   -2.1434   -0.4125    0.0000 N   0  0
   -1.4290   -0.8250    0.0000 C   0  0
   -0.7144   -0.4125    0.0000 C   0  0
    0.0000   -0.8250    0.0000 C   0  0
   -2.8601    1.3737    0.0000 H   0  0
  1  2  1  0
  2  3  1  0
  2  4  1  0
  2  5  1  0
  5  6  2  0
  6  7  1  0
  7  8  2  0
  8  9  1  0
  9 10  2  0
 10  5  1  0
 10 11  1  0
 11 12  2  0
 12 13  1  0
 13 14  2  0
 14 15  1  0
 15 16  2  0
 16 17  1  0
 16 23  1  0
 17 18  1  0
 17 27  1  0
 18 19  2  0
 18 20  1  0
 20 21  1  0
 21 22  1  0
 22 20  1  0
 23 24  2  0
 24 25  1  0
 25 14  1  0
 25 26  2  0
 26 11  1  0
M  END
> <CMPD_CHEMBLID>
CHEMBL3689553

> <STANDARD_TYPE>
Ki

> <RELATION>
=

> <STANDARD_VALUE>
0.3

> <STANDARD_UNITS>
nM

> <Molecular_Weight>
357.32917

$$$$

  SciTegic11272012012D

 32 36  0  0  0  0            999 V2000
    2.1455    0.2461    0.0000 C   0  0
    2.1445   -0.4139    0.0000 C   0  0
    2.8583   -0.8275    0.0000 C   0  0
    2.8570   -1.6525    0.0000 C   0  0
    2.1419   -2.0639    0.0000 C   0  0
    2.1408   -2.7239    0.0000 F   0  0
    1.4281   -1.6502    0.0000 C   0  0
    1.4293   -0.8252    0.0000 C   0  0
    0.7144   -0.4125    0.0000 C   0  0
    0.7144    0.4125    0.0000 C   0  0
    0.0000    0.8250    0.0000 C   0  0
    0.0000    1.6500    0.0000 C   0  0
   -0.7145    2.0625    0.0000 N   0  0
   -1.4290    1.6500    0.0000 C   0  0
   -2.1447    2.0612    0.0000 N   0  0
   -2.8590    1.6475    0.0000 C   0  0
   -2.8578    0.9875    0.0000 O   0  0
   -3.5747    2.0588    0.0000 C   0  0
   -4.3561    2.0337    0.0000 C   0  0
   -3.9436    2.7481    0.0000 C   0  0
   -1.4290    0.8250    0.0000 C   0  0
   -0.7144    0.4125    0.0000 C   0  0
   -0.7144   -0.4125    0.0000 C   0  0
    0.0000   -0.8250    0.0000 N   0  0
   -1.4293   -0.8252    0.0000 C   0  0
   -1.5039   -1.6398    0.0000 S   0  0
   -2.3105   -1.8126    0.0000 C   0  0
   -2.5780   -2.4160    0.0000 C   0  0
   -2.7242   -1.0988    0.0000 N   0  0
   -2.1731   -0.4848    0.0000 C   0  0
   -2.3075    0.1613    0.0000 C   0  0
   -2.1457    2.6112    0.0000 H   0  0
  1  2  1  0
  2  3  2  0
  3  4  1  0
  4  5  2  0
  5  6  1  0
  5  7  1  0
  7  8  2  0
  8  2  1  0
  8  9  1  0
  9 10  2  0
 10 11  1  0
 11 12  2  0
 12 13  1  0
 13 14  2  0
 14 15  1  0
 14 21  1  0
 15 16  1  0
 15 32  1  0
 16 17  2  0
 16 18  1  0
 18 19  1  0
 19 20  1  0
 20 18  1  0
 21 22  2  0
 22 11  1  0
 22 23  1  0
 23 24  2  0
 23 25  1  0
 24  9  1  0
 25 26  1  0
 26 27  1  0
 27 28  1  0
 27 29  2  0
 29 30  1  0
 30 25  2  0
 30 31  1  0
M  END
> <CMPD_CHEMBLID>
CHEMBL3689662

> <STANDARD_TYPE>
Ki

> <RELATION>
=

> <STANDARD_VALUE>
0.3

> <STANDARD_UNITS>
nM

> <Molecular_Weight>
432.51314

$$$$

  SciTegic11272012012D

 29 32  0  0  0  0            999 V2000
    2.1455    0.2461    0.0000 C   0  0
    2.1445   -0.4139    0.0000 C   0  0
    2.8583   -0.8275    0.0000 C   0  0
    2.8570   -1.6525    0.0000 C   0  0
    2.1419   -2.0639    0.0000 C   0  0
    2.1408   -2.7239    0.0000 F   0  0
    1.4281   -1.6502    0.0000 C   0  0
    1.4293   -0.8252    0.0000 C   0  0
    0.7144   -0.4125    0.0000 C   0  0
    0.7144    0.4125    0.0000 C   0  0
    0.0000    0.8250    0.0000 C   0  0
    0.0000    1.6500    0.0000 C   0  0
   -0.7145    2.0625    0.0000 N   0  0
   -1.4290    1.6500    0.0000 C   0  0
   -2.1447    2.0612    0.0000 N   0  0
   -2.8590    1.6475    0.0000 C   0  0
   -2.8578    0.9875    0.0000 O   0  0
   -3.5747    2.0588    0.0000 C   0  0
   -4.3561    2.0337    0.0000 C   0  0
   -3.9436    2.7481    0.0000 C   0  0
   -1.4290    0.8250    0.0000 C   0  0
   -0.7144    0.4125    0.0000 C   0  0
   -0.7144   -0.4125    0.0000 C   0  0
    0.0000   -0.8250    0.0000 N   0  0
   -1.4293   -0.8252    0.0000 S   0  0
   -2.0011   -0.4956    0.0000 O   0  0
   -1.4291   -1.4852    0.0000 O   0  0
   -2.0007   -1.1555    0.0000 C   0  0
   -2.1457    2.6112    0.0000 H   0  0
  1  2  1  0
  2  3  2  0
  3  4  1  0
  4  5  2  0
  5  6  1  0
  5  7  1  0
  7  8  2  0
  8  2  1  0
  8  9  1  0
  9 10  2  0
 10 11  1  0
 11 12  2  0
 12 13  1  0
 13 14  2  0
 14 15  1  0
 14 21  1  0
 15 16  1  0
 15 29  1  0
 16 17  2  0
 16 18  1  0
 18 19  1  0
 19 20  1  0
 20 18  1  0
 21 22  2  0
 22 11  1  0
 22 23  1  0
 23 24  2  0
 23 25  1  0
 24  9  1  0
 25 26  2  0
 25 27  2  0
 25 28  1  0
M  END
> <CMPD_CHEMBLID>
CHEMBL3689660

> <STANDARD_TYPE>
Ki

> <RELATION>
=

> <STANDARD_VALUE>
0.3

> <STANDARD_UNITS>
nM

> <Molecular_Weight>
399.43862

$$$$

  SciTegic11272012012D

 33 37  0  0  0  0            999 V2000
    2.1456    0.2461    0.0000 C   0  0
    2.1446   -0.4139    0.0000 C   0  0
    2.8584   -0.8275    0.0000 C   0  0
    2.8570   -1.6525    0.0000 C   0  0
    2.1419   -2.0639    0.0000 C   0  0
    1.4281   -1.6503    0.0000 C   0  0
    1.4293   -0.8252    0.0000 C   0  0
    0.7145   -0.4125    0.0000 C   0  0
    0.7145    0.4125    0.0000 C   0  0
    0.0000    0.8250    0.0000 C   0  0
   -0.7145    0.4125    0.0000 C   0  0
   -1.4290    0.8250    0.0000 C   0  0
   -2.1435    0.4125    0.0000 C   0  0
   -2.8592    0.8238    0.0000 N   0  0
   -3.5735    0.4100    0.0000 C   0  0
   -3.5723   -0.2500    0.0000 O   0  0
   -4.2892    0.8213    0.0000 C   0  0
   -5.0707    0.7961    0.0000 C   0  0
   -4.6582    1.5106    0.0000 C   0  0
   -2.1435   -0.4125    0.0000 N   0  0
   -1.4290   -0.8250    0.0000 C   0  0
   -0.7145   -0.4125    0.0000 C   0  0
    0.0000   -0.8250    0.0000 C   0  0
    2.1389   -2.8894    0.0000 C   0  0
    2.7094   -3.2213    0.0000 O   0  0
    1.4228   -3.3000    0.0000 N   0  0
    1.4198   -4.1254    0.0000 C   0  0
    0.8471   -4.4536    0.0000 C   0  0
    2.1730   -3.8888    0.0000 C   0  0
    2.3838   -4.6865    0.0000 C   0  0
    1.5861   -4.8972    0.0000 C   0  0
    0.9474   -3.0234    0.0000 H   0  0
   -2.8602    1.3738    0.0000 H   0  0
  1  2  1  0
  2  3  2  0
  3  4  1  0
  4  5  2  0
  5  6  1  0
  5 24  1  0
  6  7  2  0
  7  2  1  0
  7  8  1  0
  8  9  2  0
  9 10  1  0
 10 11  2  0
 11 12  1  0
 12 13  2  0
 13 14  1  0
 13 20  1  0
 14 15  1  0
 14 33  1  0
 15 16  2  0
 15 17  1  0
 17 18  1  0
 18 19  1  0
 19 17  1  0
 20 21  2  0
 21 22  1  0
 22 11  1  0
 22 23  2  0
 23  8  1  0
 24 25  2  0
 24 26  1  0
 26 27  1  0
 26 32  1  0
 27 28  1  0
 27 29  1  0
 29 30  1  0
 30 31  1  0
 31 27  1  0
M  END
> <CMPD_CHEMBLID>
CHEMBL3689610

> <STANDARD_TYPE>
Ki

> <RELATION>
=

> <STANDARD_VALUE>
0.3

> <STANDARD_UNITS>
nM

> <Molecular_Weight>
413.51148

$$$$

  SciTegic11272012012D

 23 25  0  0  0  0            999 V2000
    0.8551   -1.9812    0.0000 C   0  0
    1.4273   -1.6521    0.0000 C   0  0
    1.9982   -1.9833    0.0000 O   0  0
    1.4285   -0.8267    0.0000 N   0  0
    0.7144   -0.4125    0.0000 C   0  0
    0.7144    0.4125    0.0000 C   0  0
    0.0000    0.8250    0.0000 C   0  0
    0.0000    1.6500    0.0000 C   0  0
   -0.7145    2.0625    0.0000 C   0  0
   -1.4290    1.6500    0.0000 C   0  0
   -1.4290    0.8250    0.0000 C   0  0
   -0.7144    0.4125    0.0000 C   0  0
   -0.7144   -0.4125    0.0000 C   0  0
    0.0000   -0.8250    0.0000 N   0  0
   -2.1438    2.0627    0.0000 C   0  0
   -2.8576    1.6491    0.0000 C   0  0
   -3.5728    2.0605    0.0000 C   0  0
   -4.1438    1.7295    0.0000 F   0  0
   -3.5741    2.8855    0.0000 C   0  0
   -2.8603    3.2991    0.0000 C   0  0
   -2.1452    2.8877    0.0000 C   0  0
   -1.5741    3.2187    0.0000 C   0  0
    1.9053   -0.5525    0.0000 H   0  0
  1  2  1  0
  2  3  2  0
  2  4  1  0
  4  5  1  0
  4 23  1  0
  5  6  2  0
  6  7  1  0
  7  8  2  0
  8  9  1  0
  9 10  2  0
 10 11  1  0
 10 15  1  0
 11 12  2  0
 12  7  1  0
 12 13  1  0
 13 14  2  0
 14  5  1  0
 15 16  2  0
 16 17  1  0
 17 18  1  0
 17 19  2  0
 19 20  1  0
 20 21  2  0
 21 15  1  0
 21 22  1  0
M  END
> <CMPD_CHEMBLID>
CHEMBL3685041

> <STANDARD_TYPE>
Ki

> <RELATION>
=

> <STANDARD_VALUE>
0.3

> <STANDARD_UNITS>
nM

> <Molecular_Weight>
294.3229

$$$$

  SciTegic11272012012D

 25 28  0  0  0  0            999 V2000
    2.1408   -2.7239    0.0000 F   0  0
    2.1419   -2.0639    0.0000 C   0  0
    2.8570   -1.6525    0.0000 C   0  0
    2.8583   -0.8275    0.0000 C   0  0
    2.1445   -0.4139    0.0000 C   0  0
    2.1455    0.2461    0.0000 Cl  0  0
    1.4293   -0.8252    0.0000 C   0  0
    1.4281   -1.6502    0.0000 C   0  0
    0.7144   -0.4125    0.0000 C   0  0
    0.7144    0.4125    0.0000 C   0  0
    0.0000    0.8250    0.0000 N   0  0
   -0.7144    0.4125    0.0000 C   0  0
   -1.4290    0.8250    0.0000 C   0  0
   -2.1434    0.4125    0.0000 C   0  0
   -2.8591    0.8237    0.0000 N   0  0
   -3.5734    0.4100    0.0000 C   0  0
   -3.5722   -0.2500    0.0000 O   0  0
   -4.2891    0.8213    0.0000 C   0  0
   -5.0706    0.7961    0.0000 C   0  0
   -4.6581    1.5106    0.0000 C   0  0
   -2.1434   -0.4125    0.0000 N   0  0
   -1.4290   -0.8250    0.0000 C   0  0
   -0.7144   -0.4125    0.0000 C   0  0
    0.0000   -0.8250    0.0000 C   0  0
   -2.8601    1.3737    0.0000 H   0  0
  1  2  1  0
  2  3  2  0
  3  4  1  0
  4  5  2  0
  5  6  1  0
  5  7  1  0
  7  8  2  0
  7  9  1  0
  8  2  1  0
  9 10  2  0
 10 11  1  0
 11 12  2  0
 12 13  1  0
 13 14  2  0
 14 15  1  0
 14 21  1  0
 15 16  1  0
 15 25  1  0
 16 17  2  0
 16 18  1  0
 18 19  1  0
 19 20  1  0
 20 18  1  0
 21 22  2  0
 22 23  1  0
 23 12  1  0
 23 24  2  0
 24  9  1  0
M  END
> <CMPD_CHEMBLID>
CHEMBL3689680

> <STANDARD_TYPE>
Ki

> <RELATION>
=

> <STANDARD_VALUE>
0.3

> <STANDARD_UNITS>
nM

> <Molecular_Weight>
341.76672

$$$$

  SciTegic11272012012D

 40 45  0  0  0  0            999 V2000
    0.1219   -6.8660    0.0000 C   0  0
    0.7483   -7.0737    0.0000 N   0  0
    1.0033   -7.8583    0.0000 C   0  0
    1.8283   -7.8583    0.0000 C   0  0
    2.0832   -7.0737    0.0000 C   0  0
    1.4158   -6.6008    0.0000 C   0  0
    1.4171   -5.7754    0.0000 C   0  0
    0.7033   -5.3617    0.0000 C   0  0
    0.7046   -4.5367    0.0000 C   0  0
    1.4198   -4.1253    0.0000 C   0  0
    2.1336   -4.5390    0.0000 C   0  0
    2.1322   -5.3640    0.0000 C   0  0
    1.4227   -3.2999    0.0000 C   0  0
    0.8523   -2.9680    0.0000 O   0  0
    2.1388   -2.8893    0.0000 N   0  0
    2.1419   -2.0639    0.0000 C   0  0
    2.8570   -1.6525    0.0000 C   0  0
    2.8583   -0.8275    0.0000 C   0  0
    2.1445   -0.4139    0.0000 C   0  0
    2.1455    0.2461    0.0000 C   0  0
    1.4293   -0.8252    0.0000 C   0  0
    1.4281   -1.6502    0.0000 C   0  0
    0.7144   -0.4125    0.0000 C   0  0
    0.7144    0.4125    0.0000 C   0  0
    0.0000    0.8250    0.0000 C   0  0
   -0.7144    0.4125    0.0000 C   0  0
   -1.4290    0.8250    0.0000 C   0  0
   -2.1434    0.4125    0.0000 C   0  0
   -2.8591    0.8237    0.0000 N   0  0
   -3.5734    0.4100    0.0000 C   0  0
   -3.5722   -0.2500    0.0000 O   0  0
   -4.2891    0.8213    0.0000 C   0  0
   -5.0706    0.7961    0.0000 C   0  0
   -4.6581    1.5106    0.0000 C   0  0
   -2.1434   -0.4125    0.0000 N   0  0
   -1.4290   -0.8250    0.0000 C   0  0
   -0.7144   -0.4125    0.0000 C   0  0
    0.0000   -0.8250    0.0000 C   0  0
   -2.8601    1.3737    0.0000 H   0  0
    2.6143   -3.1659    0.0000 H   0  0
  1  2  1  0
  2  3  1  0
  3  4  1  0
  4  5  1  0
  5  6  1  0
  6  2  1  0
  6  7  1  0
  7  8  2  0
  8  9  1  0
  9 10  2  0
 10 11  1  0
 10 13  1  0
 11 12  2  0
 12  7  1  0
 13 14  2  0
 13 15  1  0
 15 16  1  0
 15 40  1  0
 16 17  2  0
 17 18  1  0
 18 19  2  0
 19 20  1  0
 19 21  1  0
 21 22  2  0
 21 23  1  0
 22 16  1  0
 23 24  2  0
 24 25  1  0
 25 26  2  0
 26 27  1  0
 27 28  2  0
 28 29  1  0
 28 35  1  0
 29 30  1  0
 29 39  1  0
 30 31  2  0
 30 32  1  0
 32 33  1  0
 33 34  1  0
 34 32  1  0
 35 36  2  0
 36 37  1  0
 37 26  1  0
 37 38  2  0
 38 23  1  0
M  END
> <CMPD_CHEMBLID>
CHEMBL3689558

> <STANDARD_TYPE>
Ki

> <RELATION>
=

> <STANDARD_VALUE>
0.3

> <STANDARD_UNITS>
nM

> <Molecular_Weight>
504.62208

$$$$

  SciTegic11272012012D

 31 35  0  0  0  0            999 V2000
    2.1455    0.2461    0.0000 C   0  0
    2.1445   -0.4139    0.0000 C   0  0
    2.8583   -0.8275    0.0000 C   0  0
    2.8570   -1.6525    0.0000 C   0  0
    2.1419   -2.0639    0.0000 C   0  0
    2.1408   -2.7239    0.0000 F   0  0
    1.4281   -1.6502    0.0000 C   0  0
    1.4293   -0.8252    0.0000 C   0  0
    0.7144   -0.4125    0.0000 C   0  0
    0.7144    0.4125    0.0000 C   0  0
    0.0000    0.8250    0.0000 C   0  0
    0.0000    1.6500    0.0000 C   0  0
   -0.7145    2.0625    0.0000 N   0  0
   -1.4290    1.6500    0.0000 C   0  0
   -2.1447    2.0612    0.0000 N   0  0
   -2.8590    1.6475    0.0000 C   0  0
   -2.8578    0.9875    0.0000 O   0  0
   -3.5747    2.0588    0.0000 C   0  0
   -4.3561    2.0337    0.0000 C   0  0
   -3.9436    2.7481    0.0000 C   0  0
   -1.4290    0.8250    0.0000 C   0  0
   -0.7144    0.4125    0.0000 C   0  0
   -0.7144   -0.4125    0.0000 C   0  0
    0.0000   -0.8250    0.0000 N   0  0
   -1.4293   -0.8252    0.0000 C   0  0
   -1.5039   -1.6398    0.0000 C   0  0
   -2.3105   -1.8126    0.0000 C   0  0
   -2.7242   -1.0988    0.0000 N   0  0
   -2.1731   -0.4848    0.0000 N   0  0
   -2.3075    0.1613    0.0000 C   0  0
   -2.1457    2.6112    0.0000 H   0  0
  1  2  1  0
  2  3  2  0
  3  4  1  0
  4  5  2  0
  5  6  1  0
  5  7  1  0
  7  8  2  0
  8  2  1  0
  8  9  1  0
  9 10  2  0
 10 11  1  0
 11 12  2  0
 12 13  1  0
 13 14  2  0
 14 15  1  0
 14 21  1  0
 15 16  1  0
 15 31  1  0
 16 17  2  0
 16 18  1  0
 18 19  1  0
 19 20  1  0
 20 18  1  0
 21 22  2  0
 22 11  1  0
 22 23  1  0
 23 24  2  0
 23 25  1  0
 24  9  1  0
 25 26  2  0
 26 27  1  0
 27 28  2  0
 28 29  1  0
 29 25  1  0
 29 30  1  0
M  END
> <CMPD_CHEMBLID>
CHEMBL3689659

> <STANDARD_TYPE>
Ki

> <RELATION>
=

> <STANDARD_VALUE>
0.3

> <STANDARD_UNITS>
nM

> <Molecular_Weight>
401.4362

$$$$

  SciTegic11272012012D

 32 36  0  0  0  0            999 V2000
    2.1455    0.2461    0.0000 C   0  0
    2.1445   -0.4139    0.0000 C   0  0
    2.8583   -0.8275    0.0000 C   0  0
    2.8570   -1.6525    0.0000 C   0  0
    2.1419   -2.0639    0.0000 C   0  0
    2.1388   -2.8893    0.0000 N   0  0
    1.4227   -3.2999    0.0000 C   0  0
    0.8523   -2.9680    0.0000 O   0  0
    1.4198   -4.1253    0.0000 N   0  0
    0.8355   -4.6793    0.0000 C   0  0
    1.4180   -5.2637    0.0000 C   0  0
    2.0023   -4.6812    0.0000 C   0  0
    1.4281   -1.6502    0.0000 C   0  0
    1.4293   -0.8252    0.0000 C   0  0
    0.7144   -0.4125    0.0000 C   0  0
    0.7144    0.4125    0.0000 C   0  0
    0.0000    0.8250    0.0000 C   0  0
   -0.7144    0.4125    0.0000 C   0  0
   -1.4290    0.8250    0.0000 C   0  0
   -2.1434    0.4125    0.0000 C   0  0
   -2.8591    0.8237    0.0000 N   0  0
   -3.5734    0.4100    0.0000 C   0  0
   -3.5722   -0.2500    0.0000 O   0  0
   -4.2891    0.8213    0.0000 C   0  0
   -5.0706    0.7961    0.0000 C   0  0
   -4.6581    1.5106    0.0000 C   0  0
   -2.1434   -0.4125    0.0000 N   0  0
   -1.4290   -0.8250    0.0000 C   0  0
   -0.7144   -0.4125    0.0000 C   0  0
    0.0000   -0.8250    0.0000 C   0  0
   -2.8601    1.3737    0.0000 H   0  0
    2.6143   -3.1659    0.0000 H   0  0
  1  2  1  0
  2  3  2  0
  3  4  1  0
  4  5  2  0
  5  6  1  0
  5 13  1  0
  6  7  1  0
  6 32  1  0
  7  8  2  0
  7  9  1  0
  9 10  1  0
 10 11  1  0
 11 12  1  0
 12  9  1  0
 13 14  2  0
 14  2  1  0
 14 15  1  0
 15 16  2  0
 16 17  1  0
 17 18  2  0
 18 19  1  0
 19 20  2  0
 20 21  1  0
 20 27  1  0
 21 22  1  0
 21 31  1  0
 22 23  2  0
 22 24  1  0
 24 25  1  0
 25 26  1  0
 26 24  1  0
 27 28  2  0
 28 29  1  0
 29 18  1  0
 29 30  2  0
 30 15  1  0
M  END
> <CMPD_CHEMBLID>
CHEMBL3689600

> <STANDARD_TYPE>
Ki

> <RELATION>
=

> <STANDARD_VALUE>
0.3

> <STANDARD_UNITS>
nM

> <Molecular_Weight>
400.47296

$$$$

  SciTegic11272012012D

 24 27  0  0  0  0            999 V2000
    2.1456    0.2461    0.0000 Cl  0  0
    2.1445   -0.4139    0.0000 C   0  0
    2.8583   -0.8275    0.0000 C   0  0
    2.8570   -1.6525    0.0000 C   0  0
    2.1419   -2.0639    0.0000 C   0  0
    1.4281   -1.6502    0.0000 C   0  0
    1.4293   -0.8252    0.0000 C   0  0
    0.7145   -0.4125    0.0000 C   0  0
    0.7145    0.4125    0.0000 C   0  0
    0.0000    0.8250    0.0000 C   0  0
   -0.7145    0.4125    0.0000 C   0  0
   -1.4290    0.8250    0.0000 C   0  0
   -2.1434    0.4125    0.0000 C   0  0
   -2.8592    0.8237    0.0000 N   0  0
   -3.5735    0.4100    0.0000 C   0  0
   -3.5723   -0.2500    0.0000 O   0  0
   -4.2892    0.8213    0.0000 C   0  0
   -5.0706    0.7961    0.0000 C   0  0
   -4.6581    1.5106    0.0000 C   0  0
   -2.1434   -0.4125    0.0000 N   0  0
   -1.4290   -0.8250    0.0000 C   0  0
   -0.7145   -0.4125    0.0000 C   0  0
    0.0000   -0.8250    0.0000 C   0  0
   -2.8601    1.3738    0.0000 H   0  0
  1  2  1  0
  2  3  2  0
  3  4  1  0
  4  5  2  0
  5  6  1  0
  6  7  2  0
  7  2  1  0
  7  8  1  0
  8  9  2  0
  9 10  1  0
 10 11  2  0
 11 12  1  0
 12 13  2  0
 13 14  1  0
 13 20  1  0
 14 15  1  0
 14 24  1  0
 15 16  2  0
 15 17  1  0
 17 18  1  0
 18 19  1  0
 19 17  1  0
 20 21  2  0
 21 22  1  0
 22 11  1  0
 22 23  2  0
 23  8  1  0
M  END
> <CMPD_CHEMBLID>
CHEMBL3689707

> <STANDARD_TYPE>
Ki

> <RELATION>
=

> <STANDARD_VALUE>
0.312

> <STANDARD_UNITS>
nM

> <Molecular_Weight>
322.7882

$$$$

  SciTegic11272012012D

 40 44  0  0  0  0            999 V2000
   -8.0924    0.7225    0.0000 C   0  0
   -7.8908    0.0941    0.0000 N   0  0
   -8.4451   -0.5169    0.0000 C   0  0
   -8.1930   -1.3025    0.0000 C   0  0
   -7.3867   -1.4771    0.0000 N   0  0
   -7.1329   -2.2625    0.0000 C   0  0
   -6.3259   -2.4360    0.0000 C   0  0
   -5.7738   -1.8230    0.0000 C   0  0
   -4.9668   -1.9947    0.0000 C   0  0
   -4.7120   -2.7794    0.0000 C   0  0
   -3.9050   -2.9528    0.0000 N   0  0
   -3.6512   -3.7383    0.0000 C   0  0
   -4.0938   -4.2279    0.0000 O   0  0
   -2.8442   -3.9117    0.0000 C   0  0
   -2.5894   -4.6964    0.0000 C   0  0
   -1.7825   -4.8681    0.0000 C   0  0
   -1.2303   -4.2551    0.0000 C   0  0
   -0.5848   -4.3925    0.0000 C   0  0
   -1.4851   -3.4705    0.0000 C   0  0
   -2.2920   -3.2988    0.0000 C   0  0
   -0.9327   -2.8571    0.0000 C   0  0
   -0.3802   -2.2438    0.0000 C   0  0
    0.1713   -1.6316    0.0000 C   0  0
    0.9917   -1.7178    0.0000 C   0  0
    1.3273   -0.9641    0.0000 N   0  0
    0.7144   -0.4125    0.0000 C   0  0
    0.7144    0.4125    0.0000 C   0  0
    0.0000    0.8250    0.0000 C   0  0
   -0.7144    0.4125    0.0000 C   0  0
   -0.7144   -0.4125    0.0000 N   0  0
    0.0000   -0.8250    0.0000 N   0  0
   -5.2643   -3.3924    0.0000 C   0  0
   -6.0712   -3.2207    0.0000 C   0  0
   -6.6236   -3.8339    0.0000 C   0  0
   -6.4202   -4.4618    0.0000 F   0  0
   -7.2692   -3.6964    0.0000 F   0  0
   -7.0656   -4.3241    0.0000 F   0  0
   -6.8325   -0.8660    0.0000 C   0  0
   -7.0845   -0.0804    0.0000 C   0  0
   -3.5362   -2.5448    0.0000 H   0  0
  1  2  1  0
  2  3  1  0
  3  4  1  0
  4  5  1  0
  5  6  1  0
  5 38  1  0
  6  7  1  0
  7  8  2  0
  8  9  1  0
  9 10  2  0
 10 11  1  0
 10 32  1  0
 11 12  1  0
 11 40  1  0
 12 13  2  0
 12 14  1  0
 14 15  2  0
 15 16  1  0
 16 17  2  0
 17 18  1  0
 17 19  1  0
 19 20  2  0
 19 21  1  0
 20 14  1  0
 21 22  3  0
 22 23  1  0
 23 24  2  0
 24 25  1  0
 25 26  2  0
 26 27  1  0
 27 28  2  0
 28 29  1  0
 29 30  2  0
 30 31  1  0
 31 23  1  0
 31 26  1  0
 32 33  2  0
 33  7  1  0
 33 34  1  0
 34 35  1  0
 34 36  1  0
 34 37  1  0
 38 39  1  0
 39  2  1  0
M  END
> <CMPD_CHEMBLID>
CHEMBL1171837

> <STANDARD_TYPE>
IC50

> <RELATION>
=

> <STANDARD_VALUE>
0.32

> <STANDARD_UNITS>
nM

> <Molecular_Weight>
532.55949

$$$$

  SciTegic11272012012D

 25 28  0  0  0  0            999 V2000
    2.1408   -2.7239    0.0000 F   0  0
    2.1419   -2.0639    0.0000 C   0  0
    2.8570   -1.6525    0.0000 C   0  0
    2.8583   -0.8275    0.0000 C   0  0
    2.1445   -0.4139    0.0000 C   0  0
    2.1456    0.2461    0.0000 F   0  0
    1.4293   -0.8252    0.0000 C   0  0
    1.4281   -1.6502    0.0000 C   0  0
    0.7145   -0.4125    0.0000 C   0  0
    0.7145    0.4125    0.0000 C   0  0
    0.0000    0.8250    0.0000 C   0  0
   -0.7145    0.4125    0.0000 C   0  0
   -1.4290    0.8250    0.0000 C   0  0
   -2.1434    0.4125    0.0000 C   0  0
   -2.8592    0.8237    0.0000 N   0  0
   -3.5735    0.4100    0.0000 C   0  0
   -3.5723   -0.2500    0.0000 O   0  0
   -4.2892    0.8213    0.0000 C   0  0
   -5.0706    0.7961    0.0000 C   0  0
   -4.6581    1.5106    0.0000 C   0  0
   -2.1434   -0.4125    0.0000 N   0  0
   -1.4290   -0.8250    0.0000 C   0  0
   -0.7145   -0.4125    0.0000 C   0  0
    0.0000   -0.8250    0.0000 C   0  0
   -2.8601    1.3738    0.0000 H   0  0
  1  2  1  0
  2  3  2  0
  3  4  1  0
  4  5  2  0
  5  6  1  0
  5  7  1  0
  7  8  2  0
  7  9  1  0
  8  2  1  0
  9 10  2  0
 10 11  1  0
 11 12  2  0
 12 13  1  0
 13 14  2  0
 14 15  1  0
 14 21  1  0
 15 16  1  0
 15 25  1  0
 16 17  2  0
 16 18  1  0
 18 19  1  0
 19 20  1  0
 20 18  1  0
 21 22  2  0
 22 23  1  0
 23 12  1  0
 23 24  2  0
 24  9  1  0
M  END
> <CMPD_CHEMBLID>
CHEMBL3689698

> <STANDARD_TYPE>
Ki

> <RELATION>
=

> <STANDARD_VALUE>
0.349

> <STANDARD_UNITS>
nM

> <Molecular_Weight>
324.32407

$$$$

  SciTegic11272012012D

 25 28  0  0  0  0            999 V2000
    2.1408   -2.7239    0.0000 F   0  0
    2.1419   -2.0639    0.0000 C   0  0
    2.8570   -1.6525    0.0000 C   0  0
    2.8583   -0.8275    0.0000 C   0  0
    2.1445   -0.4139    0.0000 C   0  0
    2.1455    0.2461    0.0000 Cl  0  0
    1.4293   -0.8252    0.0000 C   0  0
    1.4281   -1.6502    0.0000 C   0  0
    0.7144   -0.4125    0.0000 C   0  0
    0.7144    0.4125    0.0000 C   0  0
    0.0000    0.8250    0.0000 C   0  0
    0.0000    1.6500    0.0000 C   0  0
   -0.7145    2.0625    0.0000 N   0  0
   -1.4290    1.6500    0.0000 C   0  0
   -2.1447    2.0612    0.0000 N   0  0
   -2.8590    1.6475    0.0000 C   0  0
   -2.8578    0.9875    0.0000 O   0  0
   -3.5747    2.0588    0.0000 C   0  0
   -4.3561    2.0337    0.0000 C   0  0
   -3.9436    2.7481    0.0000 C   0  0
   -1.4290    0.8250    0.0000 C   0  0
   -0.7144    0.4125    0.0000 C   0  0
   -0.7144   -0.4125    0.0000 C   0  0
    0.0000   -0.8250    0.0000 N   0  0
   -2.1457    2.6112    0.0000 H   0  0
  1  2  1  0
  2  3  2  0
  3  4  1  0
  4  5  2  0
  5  6  1  0
  5  7  1  0
  7  8  2  0
  7  9  1  0
  8  2  1  0
  9 10  2  0
 10 11  1  0
 11 12  2  0
 12 13  1  0
 13 14  2  0
 14 15  1  0
 14 21  1  0
 15 16  1  0
 15 25  1  0
 16 17  2  0
 16 18  1  0
 18 19  1  0
 19 20  1  0
 20 18  1  0
 21 22  2  0
 22 11  1  0
 22 23  1  0
 23 24  2  0
 24  9  1  0
M  END
> <CMPD_CHEMBLID>
CHEMBL3689634

> <STANDARD_TYPE>
Ki

> <RELATION>
=

> <STANDARD_VALUE>
0.4

> <STANDARD_UNITS>
nM

> <Molecular_Weight>
341.76672

$$$$

  SciTegic11272012012D

 31 35  0  0  0  0            999 V2000
    2.1455    0.2461    0.0000 C   0  0
    2.1445   -0.4139    0.0000 C   0  0
    2.8583   -0.8275    0.0000 C   0  0
    2.8570   -1.6525    0.0000 C   0  0
    2.1419   -2.0639    0.0000 C   0  0
    2.1408   -2.7239    0.0000 F   0  0
    1.4281   -1.6502    0.0000 C   0  0
    1.4293   -0.8252    0.0000 C   0  0
    0.7144   -0.4125    0.0000 C   0  0
    0.7144    0.4125    0.0000 C   0  0
    0.0000    0.8250    0.0000 C   0  0
    0.0000    1.6500    0.0000 C   0  0
   -0.7145    2.0625    0.0000 N   0  0
   -1.4290    1.6500    0.0000 C   0  0
   -2.1447    2.0612    0.0000 N   0  0
   -2.8590    1.6475    0.0000 C   0  0
   -2.8578    0.9875    0.0000 O   0  0
   -3.5747    2.0588    0.0000 C   0  0
   -4.3561    2.0337    0.0000 C   0  0
   -3.9436    2.7481    0.0000 C   0  0
   -1.4290    0.8250    0.0000 C   0  0
   -0.7144    0.4125    0.0000 C   0  0
   -0.7144   -0.4125    0.0000 C   0  0
    0.0000   -0.8250    0.0000 N   0  0
   -1.4293   -0.8252    0.0000 C   0  0
   -2.1445   -0.4139    0.0000 C   0  0
   -2.8583   -0.8275    0.0000 C   0  0
   -2.8570   -1.6525    0.0000 C   0  0
   -2.1419   -2.0639    0.0000 C   0  0
   -1.4280   -1.6502    0.0000 C   0  0
   -2.1457    2.6112    0.0000 H   0  0
  1  2  1  0
  2  3  2  0
  3  4  1  0
  4  5  2  0
  5  6  1  0
  5  7  1  0
  7  8  2  0
  8  2  1  0
  8  9  1  0
  9 10  2  0
 10 11  1  0
 11 12  2  0
 12 13  1  0
 13 14  2  0
 14 15  1  0
 14 21  1  0
 15 16  1  0
 15 31  1  0
 16 17  2  0
 16 18  1  0
 18 19  1  0
 19 20  1  0
 20 18  1  0
 21 22  2  0
 22 11  1  0
 22 23  1  0
 23 24  2  0
 23 25  1  0
 24  9  1  0
 25 26  2  0
 26 27  1  0
 27 28  2  0
 28 29  1  0
 29 30  2  0
 30 25  1  0
M  END
> <CMPD_CHEMBLID>
CHEMBL3689661

> <STANDARD_TYPE>
Ki

> <RELATION>
=

> <STANDARD_VALUE>
0.4

> <STANDARD_UNITS>
nM

> <Molecular_Weight>
397.4442

$$$$

  SciTegic11272012012D

 41 45  0  0  0  0            999 V2000
   -6.3002  -11.1081    0.0000 C   0  0
   -6.2311  -10.4517    0.0000 N   0  0
   -6.8985   -9.9666    0.0000 C   0  0
   -6.8121   -9.1462    0.0000 C   0  0
   -6.0583   -8.8107    0.0000 N   0  0
   -5.9702   -7.9900    0.0000 C   0  0
   -5.2155   -7.6555    0.0000 C   0  0
   -4.5499   -8.1429    0.0000 C   0  0
   -3.7950   -7.8101    0.0000 C   0  0
   -3.7057   -6.9899    0.0000 C   0  0
   -2.9510   -6.6554    0.0000 N   0  0
   -2.8628   -5.8347    0.0000 C   0  0
   -3.3961   -5.4457    0.0000 O   0  0
   -2.1083   -5.5002    0.0000 N   0  0
   -2.0203   -4.6809    0.0000 C   0  0
   -1.3057   -4.2685    0.0000 C   0  0
   -1.4851   -3.4705    0.0000 C   0  0
   -0.9327   -2.8571    0.0000 C   0  0
   -0.3802   -2.2438    0.0000 C   0  0
    0.1713   -1.6316    0.0000 C   0  0
    0.9918   -1.7178    0.0000 C   0  0
    1.3273   -0.9641    0.0000 N   0  0
    0.7144   -0.4125    0.0000 C   0  0
    0.7144    0.4125    0.0000 C   0  0
    0.0000    0.8250    0.0000 N   0  0
   -0.7144    0.4125    0.0000 C   0  0
   -0.7144   -0.4125    0.0000 C   0  0
    0.0000   -0.8250    0.0000 N   0  0
   -2.2975   -3.3751    0.0000 N   0  0
   -2.6240   -2.8015    0.0000 C   0  0
   -2.6332   -4.1287    0.0000 N   0  0
   -4.3714   -6.5026    0.0000 C   0  0
   -5.1263   -6.8353    0.0000 C   0  0
   -5.7923   -6.3477    0.0000 C   0  0
   -5.7213   -5.6915    0.0000 F   0  0
   -6.3961   -6.6141    0.0000 F   0  0
   -6.3250   -5.9580    0.0000 F   0  0
   -5.3910   -9.2958    0.0000 C   0  0
   -5.4774  -10.1163    0.0000 C   0  0
   -1.6639   -5.8243    0.0000 H   0  0
   -2.5067   -6.9796    0.0000 H   0  0
  1  2  1  0
  2  3  1  0
  3  4  1  0
  4  5  1  0
  5  6  1  0
  5 38  1  0
  6  7  1  0
  7  8  2  0
  8  9  1  0
  9 10  2  0
 10 11  1  0
 10 32  1  0
 11 12  1  0
 11 41  1  0
 12 13  2  0
 12 14  1  0
 14 15  1  0
 14 40  1  0
 15 16  1  0
 16 17  2  0
 17 18  1  0
 17 29  1  0
 18 19  3  0
 19 20  1  0
 20 21  2  0
 21 22  1  0
 22 23  2  0
 23 24  1  0
 24 25  2  0
 25 26  1  0
 26 27  2  0
 27 28  1  0
 28 20  1  0
 28 23  1  0
 29 30  1  0
 29 31  1  0
 31 15  2  0
 32 33  2  0
 33  7  1  0
 33 34  1  0
 34 35  1  0
 34 36  1  0
 34 37  1  0
 38 39  1  0
 39  2  1  0
M  END
> <CMPD_CHEMBLID>
CHEMBL2324925

> <STANDARD_TYPE>
IC50

> <RELATION>
=

> <STANDARD_VALUE>
0.4

> <STANDARD_UNITS>
nM

> <Molecular_Weight>
537.53955

$$$$

  SciTegic11272012012D

 35 39  0  0  0  0            999 V2000
    2.1456    0.2461    0.0000 C   0  0
    2.1446   -0.4139    0.0000 C   0  0
    2.8584   -0.8275    0.0000 C   0  0
    2.8570   -1.6525    0.0000 C   0  0
    2.1419   -2.0639    0.0000 C   0  0
    2.1389   -2.8894    0.0000 N   0  0
    1.4228   -3.3000    0.0000 C   0  0
    0.8523   -2.9681    0.0000 O   0  0
    1.4198   -4.1254    0.0000 N   0  0
    0.7516   -4.5973    0.0000 C   0  0
    1.0053   -5.3823    0.0000 C   0  0
    1.8303   -5.3836    0.0000 C   0  0
    2.3150   -6.0501    0.0000 O   0  0
    2.0865   -4.5994    0.0000 C   0  0
    1.4281   -1.6503    0.0000 C   0  0
    1.4293   -0.8252    0.0000 C   0  0
    0.7145   -0.4125    0.0000 C   0  0
    0.7145    0.4125    0.0000 C   0  0
    0.0000    0.8250    0.0000 C   0  0
   -0.7145    0.4125    0.0000 C   0  0
   -1.4290    0.8250    0.0000 C   0  0
   -2.1435    0.4125    0.0000 C   0  0
   -2.8592    0.8238    0.0000 N   0  0
   -3.5735    0.4100    0.0000 C   0  0
   -3.5723   -0.2500    0.0000 O   0  0
   -4.2892    0.8213    0.0000 C   0  0
   -5.0707    0.7961    0.0000 C   0  0
   -4.6582    1.5106    0.0000 C   0  0
   -2.1435   -0.4125    0.0000 N   0  0
   -1.4290   -0.8250    0.0000 C   0  0
   -0.7145   -0.4125    0.0000 C   0  0
    0.0000   -0.8250    0.0000 C   0  0
   -2.8602    1.3738    0.0000 H   0  0
    2.8620   -5.9927    0.0000 H   0  0
    2.6143   -3.1660    0.0000 H   0  0
  1  2  1  0
  2  3  2  0
  3  4  1  0
  4  5  2  0
  5  6  1  0
  5 15  1  0
  6  7  1  0
  6 35  1  0
  7  8  2  0
  7  9  1  0
  9 10  1  0
 10 11  1  0
 11 12  1  0
 12 13  1  0
 12 14  1  0
 13 34  1  0
 14  9  1  0
 15 16  2  0
 16  2  1  0
 16 17  1  0
 17 18  2  0
 18 19  1  0
 19 20  2  0
 20 21  1  0
 21 22  2  0
 22 23  1  0
 22 29  1  0
 23 24  1  0
 23 33  1  0
 24 25  2  0
 24 26  1  0
 26 27  1  0
 27 28  1  0
 28 26  1  0
 29 30  2  0
 30 31  1  0
 31 20  1  0
 31 32  2  0
 32 17  1  0
M  END
> <CMPD_CHEMBLID>
CHEMBL3689604

> <STANDARD_TYPE>
Ki

> <RELATION>
=

> <STANDARD_VALUE>
0.4

> <STANDARD_UNITS>
nM

> <Molecular_Weight>
430.49894

$$$$

  SciTegic11272012012D

 39 43  0  0  0  0            999 V2000
    2.2769    1.9826    0.0000 C   0  0
    2.8502    1.6554    0.0000 O   0  0
    2.8547    0.8300    0.0000 C   0  0
    2.1416    0.4150    0.0000 C   0  0
    2.1444   -0.4100    0.0000 C   0  0
    1.4302   -0.8237    0.0000 N   0  0
    0.7144   -0.4125    0.0000 C   0  0
    0.7144    0.4125    0.0000 C   0  0
    0.0000    0.8250    0.0000 C   0  0
   -0.7144    0.4125    0.0000 N   0  0
   -0.7144   -0.4125    0.0000 C   0  0
   -1.4290   -0.8250    0.0000 C   0  0
   -1.4290   -1.6500    0.0000 C   0  0
   -0.7144   -2.0625    0.0000 C   0  0
   -0.7127   -2.8879    0.0000 O   0  0
   -0.1407   -3.2172    0.0000 C   0  0
    0.0000   -1.6500    0.0000 C   0  0
    0.0000   -0.8250    0.0000 C   0  0
   -2.1437   -2.0627    0.0000 C   0  0
   -2.8876   -1.7223    0.0000 C   0  0
   -3.4387   -2.3363    0.0000 O   0  0
   -3.0250   -3.0501    0.0000 C   0  0
   -3.3574   -3.8041    0.0000 C   0  0
   -2.8702   -4.4705    0.0000 N   0  0
   -3.2019   -5.2259    0.0000 C   0  0
   -2.7136   -5.8908    0.0000 C   0  0
   -1.8935   -5.8005    0.0000 N   0  0
   -1.5029   -6.3324    0.0000 C   0  0
   -1.5618   -5.0451    0.0000 C   0  0
   -2.0501   -4.3801    0.0000 C   0  0
   -2.2183   -2.8773    0.0000 C   0  0
    1.4293    0.8252    0.0000 C   0  0
    2.0009    1.1552    0.0000 N   0  0
    2.8604   -0.8200    0.0000 C   0  0
    2.8627   -1.4800    0.0000 Cl  0  0
    3.5735   -0.4050    0.0000 C   0  0
    3.5706    0.4200    0.0000 C   0  0
    4.1410    0.7520    0.0000 Cl  0  0
    1.4312   -1.3737    0.0000 H   0  0
  1  2  1  0
  2  3  1  0
  3  4  2  0
  4  5  1  0
  5  6  1  0
  5 34  2  0
  6  7  1  0
  6 39  1  0
  7  8  2  0
  8  9  1  0
  8 32  1  0
  9 10  2  0
 10 11  1  0
 11 12  2  0
 12 13  1  0
 13 14  2  0
 13 19  1  0
 14 15  1  0
 14 17  1  0
 15 16  1  0
 17 18  2  0
 18  7  1  0
 18 11  1  0
 19 20  2  0
 20 21  1  0
 21 22  1  0
 22 23  1  0
 22 31  2  0
 23 24  1  0
 24 25  1  0
 25 26  1  0
 26 27  1  0
 27 28  1  0
 27 29  1  0
 29 30  1  0
 30 24  1  0
 31 19  1  0
 32 33  3  0
 34 35  1  0
 34 36  1  0
 36 37  2  0
 37  3  1  0
 37 38  1  0
M  END
> <CMPD_CHEMBLID>
CHEMBL219557

> <STANDARD_TYPE>
IC50

> <RELATION>
=

> <STANDARD_VALUE>
0.4

> <STANDARD_UNITS>
nM

> <Molecular_Weight>
552.45168

$$$$

  SciTegic11272012012D

 27 31  0  0  0  0            999 V2000
    2.1456    0.2461    0.0000 C   0  0
    2.1445   -0.4139    0.0000 C   0  0
    2.8583   -0.8275    0.0000 C   0  0
    2.8570   -1.6525    0.0000 C   0  0
    2.1419   -2.0639    0.0000 N   0  0
    1.4281   -1.6502    0.0000 C   0  0
    1.4293   -0.8252    0.0000 C   0  0
    0.7145   -0.4125    0.0000 C   0  0
    0.7145    0.4125    0.0000 C   0  0
    0.0000    0.8250    0.0000 C   0  0
   -0.7145    0.4125    0.0000 C   0  0
   -1.4290    0.8250    0.0000 C   0  0
   -2.1434    0.4125    0.0000 C   0  0
   -2.8591    0.8237    0.0000 N   0  0
   -3.5734    0.4100    0.0000 C   0  0
   -3.5723   -0.2500    0.0000 O   0  0
   -4.2891    0.8213    0.0000 C   0  0
   -5.0680    0.7946    0.0000 C   0  0
   -5.8749    0.9662    0.0000 C   0  0
   -5.9611    1.7867    0.0000 O   0  0
   -5.2074    2.1222    0.0000 C   0  0
   -4.6554    1.5091    0.0000 C   0  0
   -2.1434   -0.4125    0.0000 N   0  0
   -1.4290   -0.8250    0.0000 C   0  0
   -0.7145   -0.4125    0.0000 C   0  0
    0.0000   -0.8250    0.0000 C   0  0
   -2.8601    1.3737    0.0000 H   0  0
  1  2  1  0
  2  3  2  0
  3  4  1  0
  4  5  2  0
  5  6  1  0
  6  7  2  0
  7  2  1  0
  7  8  1  0
  8  9  2  0
  9 10  1  0
 10 11  2  0
 11 12  1  0
 12 13  2  0
 13 14  1  0
 13 23  1  0
 14 15  1  0
 14 27  1  0
 15 16  2  0
 15 17  1  0
 17 18  1  0
 18 19  1  0
 19 20  1  0
 20 21  1  0
 21 22  1  0
 22 17  1  0
 22 18  1  0
 23 24  2  0
 24 25  1  0
 25 11  1  0
 25 26  2  0
 26  8  1  0
M  END
> <CMPD_CHEMBLID>
CHEMBL3689579

> <STANDARD_TYPE>
Ki

> <RELATION>
=

> <STANDARD_VALUE>
0.4

> <STANDARD_UNITS>
nM

> <Molecular_Weight>
345.39446

$$$$

  SciTegic11272012012D

 34 38  0  0  0  0            999 V2000
    2.1455    0.2461    0.0000 C   0  0
    2.1445   -0.4139    0.0000 C   0  0
    2.8583   -0.8275    0.0000 C   0  0
    2.8570   -1.6525    0.0000 C   0  0
    2.1419   -2.0639    0.0000 C   0  0
    2.1388   -2.8893    0.0000 N   0  0
    1.4227   -3.2999    0.0000 C   0  0
    0.8523   -2.9680    0.0000 O   0  0
    1.4198   -4.1253    0.0000 N   0  0
    0.7046   -4.5367    0.0000 C   0  0
    0.7033   -5.3617    0.0000 C   0  0
    1.4171   -5.7754    0.0000 O   0  0
    2.1322   -5.3640    0.0000 C   0  0
    2.1336   -4.5390    0.0000 C   0  0
    1.4281   -1.6502    0.0000 C   0  0
    1.4293   -0.8252    0.0000 C   0  0
    0.7144   -0.4125    0.0000 C   0  0
    0.7144    0.4125    0.0000 C   0  0
    0.0000    0.8250    0.0000 C   0  0
   -0.7144    0.4125    0.0000 C   0  0
   -1.4290    0.8250    0.0000 C   0  0
   -2.1434    0.4125    0.0000 C   0  0
   -2.8591    0.8237    0.0000 N   0  0
   -3.5734    0.4100    0.0000 C   0  0
   -3.5722   -0.2500    0.0000 O   0  0
   -4.2891    0.8213    0.0000 C   0  0
   -5.0706    0.7961    0.0000 C   0  0
   -4.6581    1.5106    0.0000 C   0  0
   -2.1434   -0.4125    0.0000 N   0  0
   -1.4290   -0.8250    0.0000 C   0  0
   -0.7144   -0.4125    0.0000 C   0  0
    0.0000   -0.8250    0.0000 C   0  0
   -2.8601    1.3737    0.0000 H   0  0
    2.6143   -3.1659    0.0000 H   0  0
  1  2  1  0
  2  3  2  0
  3  4  1  0
  4  5  2  0
  5  6  1  0
  5 15  1  0
  6  7  1  0
  6 34  1  0
  7  8  2  0
  7  9  1  0
  9 10  1  0
 10 11  1  0
 11 12  1  0
 12 13  1  0
 13 14  1  0
 14  9  1  0
 15 16  2  0
 16  2  1  0
 16 17  1  0
 17 18  2  0
 18 19  1  0
 19 20  2  0
 20 21  1  0
 21 22  2  0
 22 23  1  0
 22 29  1  0
 23 24  1  0
 23 33  1  0
 24 25  2  0
 24 26  1  0
 26 27  1  0
 27 28  1  0
 28 26  1  0
 29 30  2  0
 30 31  1  0
 31 20  1  0
 31 32  2  0
 32 17  1  0
M  END
> <CMPD_CHEMBLID>
CHEMBL3689546

> <STANDARD_TYPE>
Ki

> <RELATION>
=

> <STANDARD_VALUE>
0.4

> <STANDARD_UNITS>
nM

> <Molecular_Weight>
430.49894

$$$$

  SciTegic11272012012D

 26 29  0  0  0  0            999 V2000
    2.1455    0.2461    0.0000 C   0  0
    2.1445   -0.4139    0.0000 C   0  0
    2.8583   -0.8275    0.0000 C   0  0
    2.8570   -1.6525    0.0000 C   0  0
    2.1419   -2.0639    0.0000 C   0  0
    2.1408   -2.7239    0.0000 F   0  0
    1.4281   -1.6502    0.0000 C   0  0
    1.4293   -0.8252    0.0000 C   0  0
    0.7144   -0.4125    0.0000 C   0  0
    0.7144    0.4125    0.0000 C   0  0
    0.0000    0.8250    0.0000 C   0  0
    0.0000    1.6500    0.0000 C   0  0
   -0.7145    2.0625    0.0000 N   0  0
   -1.4290    1.6500    0.0000 C   0  0
   -2.1447    2.0612    0.0000 N   0  0
   -2.8590    1.6475    0.0000 C   0  0
   -2.8578    0.9875    0.0000 O   0  0
   -3.5747    2.0588    0.0000 C   0  0
   -4.3561    2.0337    0.0000 C   0  0
   -3.9436    2.7481    0.0000 C   0  0
   -1.4290    0.8250    0.0000 C   0  0
   -0.7144    0.4125    0.0000 C   0  0
   -0.7144   -0.4125    0.0000 C   0  0
    0.0000   -0.8250    0.0000 N   0  3
    0.0000   -1.4850    0.0000 O   0  5
   -2.1457    2.6112    0.0000 H   0  0
  1  2  1  0
  2  3  2  0
  3  4  1  0
  4  5  2  0
  5  6  1  0
  5  7  1  0
  7  8  2  0
  8  2  1  0
  8  9  1  0
  9 10  2  0
 10 11  1  0
 11 12  2  0
 12 13  1  0
 13 14  2  0
 14 15  1  0
 14 21  1  0
 15 16  1  0
 15 26  1  0
 16 17  2  0
 16 18  1  0
 18 19  1  0
 19 20  1  0
 20 18  1  0
 21 22  2  0
 22 11  1  0
 22 23  1  0
 23 24  2  0
 24  9  1  0
 24 25  1  0
M  CHG  2  24   1  25  -1
M  END
> <CMPD_CHEMBLID>
CHEMBL3689648

> <STANDARD_TYPE>
Ki

> <RELATION>
=

> <STANDARD_VALUE>
0.4

> <STANDARD_UNITS>
nM

> <Molecular_Weight>
337.34764

$$$$

  SciTegic11272012012D

 41 45  0  0  0  0            999 V2000
   -0.5838   -4.4538    0.0000 C   0  0
   -0.0117   -4.1248    0.0000 C   0  0
    0.7027   -4.5383    0.0000 N   0  0
    0.6999   -5.3638    0.0000 C   0  0
   -0.0162   -5.7745    0.0000 C   0  0
   -0.0190   -6.5999    0.0000 N   0  0
   -0.6871   -7.0719    0.0000 C   0  0
   -0.4333   -7.8569    0.0000 C   0  0
    0.3917   -7.8580    0.0000 C   0  0
    0.6478   -7.0737    0.0000 C   0  0
    1.4187   -4.1276    0.0000 S   0  0
    1.4168   -4.7876    0.0000 O   0  0
    1.9893   -4.4594    0.0000 O   0  0
    1.4216   -3.3022    0.0000 C   0  0
    2.1375   -2.8922    0.0000 C   0  0
    2.1403   -2.0672    0.0000 C   0  0
    1.4273   -1.6521    0.0000 C   0  0
    1.4285   -0.8267    0.0000 N   0  0
    0.7144   -0.4125    0.0000 C   0  0
    0.7144    0.4125    0.0000 N   0  0
    0.0000    0.8250    0.0000 N   0  0
   -0.7144    0.4125    0.0000 C   0  0
   -1.4289    0.8250    0.0000 C   0  0
   -2.1434    0.4125    0.0000 C   0  0
   -2.1434   -0.4125    0.0000 C   0  0
   -1.4289   -0.8250    0.0000 C   0  0
   -1.4289   -1.4850    0.0000 C   0  0
   -0.7144   -0.4125    0.0000 C   0  0
    0.0000   -0.8250    0.0000 N   0  0
   -2.8582    0.8252    0.0000 C   0  0
   -3.5721    0.4116    0.0000 C   0  0
   -4.2872    0.8230    0.0000 C   0  0
   -5.0023    0.4106    0.0000 O   0  0
   -4.2885    1.6480    0.0000 C   0  0
   -3.5747    2.0616    0.0000 C   0  0
   -2.8596    1.6502    0.0000 C   0  0
   -2.2885    1.9811    0.0000 Cl  0  0
    0.7114   -2.0622    0.0000 C   0  0
    0.7086   -2.8872    0.0000 C   0  0
   -5.4786    0.6855    0.0000 H   0  0
    1.9053   -0.5525    0.0000 H   0  0
  1  2  1  0
  2  3  1  0
  3  4  1  0
  3 11  1  0
  4  5  1  0
  5  6  1  0
  6  7  1  0
  7  8  1  0
  8  9  1  0
  9 10  1  0
 10  6  1  0
 11 12  2  0
 11 13  2  0
 11 14  1  0
 14 15  2  0
 15 16  1  0
 16 17  2  0
 17 18  1  0
 17 38  1  0
 18 19  1  0
 18 41  1  0
 19 20  2  0
 20 21  1  0
 21 22  2  0
 22 23  1  0
 23 24  2  0
 24 25  1  0
 24 30  1  0
 25 26  2  0
 26 27  1  0
 26 28  1  0
 28 22  1  0
 28 29  2  0
 29 19  1  0
 30 31  2  0
 31 32  1  0
 32 33  1  0
 32 34  2  0
 33 40  1  0
 34 35  1  0
 35 36  2  0
 36 30  1  0
 36 37  1  0
 38 39  2  0
 39 14  1  0
M  END
> <CMPD_CHEMBLID>
CHEMBL250021

> <STANDARD_TYPE>
Ki

> <RELATION>
=

> <STANDARD_VALUE>
0.4

> <STANDARD_UNITS>
nM

> <Molecular_Weight>
567.10214

$$$$

  SciTegic11272012012D

 38 42  0  0  0  0            999 V2000
    4.1350   -8.1650    0.0000 C   0  0
    3.5628   -7.8361    0.0000 N   0  0
    2.8491   -8.2499    0.0000 C   0  0
    2.1338   -7.8387    0.0000 C   0  0
    2.1323   -7.0137    0.0000 N   0  0
    1.4175   -6.6008    0.0000 C   0  0
    1.4171   -5.7754    0.0000 C   0  0
    0.7033   -5.3617    0.0000 C   0  0
    0.7046   -4.5367    0.0000 C   0  0
    1.4198   -4.1253    0.0000 C   0  0
    2.1336   -4.5390    0.0000 C   0  0
    2.1322   -5.3640    0.0000 C   0  0
    1.4227   -3.2999    0.0000 C   0  0
    0.8523   -2.9680    0.0000 O   0  0
    2.1388   -2.8893    0.0000 N   0  0
    2.1419   -2.0639    0.0000 C   0  0
    2.8570   -1.6525    0.0000 C   0  0
    2.8583   -0.8275    0.0000 C   0  0
    2.1445   -0.4139    0.0000 C   0  0
    2.1455    0.2461    0.0000 C   0  0
    1.4293   -0.8252    0.0000 C   0  0
    1.4281   -1.6502    0.0000 C   0  0
    0.7144   -0.4125    0.0000 C   0  0
    0.7144    0.4125    0.0000 C   0  0
    0.0000    0.8250    0.0000 C   0  0
   -0.7144    0.4125    0.0000 C   0  0
   -1.4290    0.8250    0.0000 C   0  0
   -2.1434    0.4125    0.0000 C   0  0
   -2.8591    0.8237    0.0000 N   0  0
   -2.1434   -0.4125    0.0000 N   0  0
   -1.4290   -0.8250    0.0000 C   0  0
   -0.7144   -0.4125    0.0000 C   0  0
    0.0000   -0.8250    0.0000 C   0  0
    2.8460   -6.5999    0.0000 C   0  0
    3.5612   -7.0111    0.0000 C   0  0
   -3.3350    0.5481    0.0000 H   0  0
   -2.8601    1.3737    0.0000 H   0  0
    2.6143   -3.1659    0.0000 H   0  0
  1  2  1  0
  2  3  1  0
  3  4  1  0
  4  5  1  0
  5  6  1  0
  5 34  1  0
  6  7  1  0
  7  8  2  0
  8  9  1  0
  9 10  2  0
 10 11  1  0
 10 13  1  0
 11 12  2  0
 12  7  1  0
 13 14  2  0
 13 15  1  0
 15 16  1  0
 15 38  1  0
 16 17  2  0
 17 18  1  0
 18 19  2  0
 19 20  1  0
 19 21  1  0
 21 22  2  0
 21 23  1  0
 22 16  1  0
 23 24  2  0
 24 25  1  0
 25 26  2  0
 26 27  1  0
 27 28  2  0
 28 29  1  0
 28 30  1  0
 29 36  1  0
 29 37  1  0
 30 31  2  0
 31 32  1  0
 32 26  1  0
 32 33  2  0
 33 23  1  0
 34 35  1  0
 35  2  1  0
M  END
> <CMPD_CHEMBLID>
CHEMBL3689576

> <STANDARD_TYPE>
Ki

> <RELATION>
=

> <STANDARD_VALUE>
0.4

> <STANDARD_UNITS>
nM

> <Molecular_Weight>
465.58934

$$$$

  SciTegic11272012012D

 27 30  0  0  0  0            999 V2000
    2.1456    0.2461    0.0000 C   0  0
    2.1445   -0.4139    0.0000 C   0  0
    2.8583   -0.8275    0.0000 C   0  0
    2.8570   -1.6525    0.0000 C   0  0
    2.1419   -2.0639    0.0000 C   0  0
    2.1408   -2.7239    0.0000 F   0  0
    1.4281   -1.6502    0.0000 C   0  0
    1.4293   -0.8252    0.0000 C   0  0
    0.7145   -0.4125    0.0000 C   0  0
    0.7145    0.4125    0.0000 C   0  0
    0.0000    0.8250    0.0000 C   0  0
   -0.7145    0.4125    0.0000 C   0  0
   -1.4290    0.8250    0.0000 C   0  0
   -2.1434    0.4125    0.0000 C   0  0
   -2.8592    0.8237    0.0000 N   0  0
   -3.5735    0.4100    0.0000 C   0  0
   -3.5723   -0.2500    0.0000 O   0  0
   -4.2892    0.8213    0.0000 C   0  0
   -4.6581    1.5106    0.0000 C   0  0
   -5.0706    0.7961    0.0000 C   0  0
   -5.0683    0.1362    0.0000 F   0  0
   -5.6515    1.1096    0.0000 F   0  0
   -2.1434   -0.4125    0.0000 N   0  0
   -1.4290   -0.8250    0.0000 C   0  0
   -0.7145   -0.4125    0.0000 C   0  0
    0.0000   -0.8250    0.0000 C   0  0
   -2.8601    1.3738    0.0000 H   0  0
  1  2  1  0
  2  3  2  0
  3  4  1  0
  4  5  2  0
  5  6  1  0
  5  7  1  0
  7  8  2  0
  8  2  1  0
  8  9  1  0
  9 10  2  0
 10 11  1  0
 11 12  2  0
 12 13  1  0
 13 14  2  0
 14 15  1  0
 14 23  1  0
 15 16  1  0
 15 27  1  0
 16 17  2  0
 16 18  1  0
 18 19  1  0
 19 20  1  0
 20 18  1  0
 20 21  1  0
 20 22  1  0
 23 24  2  0
 24 25  1  0
 25 12  1  0
 25 26  2  0
 26  9  1  0
M  END
> <CMPD_CHEMBLID>
CHEMBL3685010

> <STANDARD_TYPE>
Ki

> <RELATION>
=

> <STANDARD_VALUE>
0.4

> <STANDARD_UNITS>
nM

> <Molecular_Weight>
356.34111

$$$$

  SciTegic11272012012D

 26 29  0  0  0  0            999 V2000
    2.8636    0.8221    0.0000 O   0  0
    2.1475    0.4116    0.0000 C   0  0
    2.1445   -0.4139    0.0000 C   0  0
    2.8583   -0.8275    0.0000 C   0  0
    2.8570   -1.6525    0.0000 C   0  0
    2.1419   -2.0639    0.0000 N   0  0
    1.4281   -1.6502    0.0000 C   0  0
    1.4293   -0.8252    0.0000 C   0  0
    0.7144   -0.4125    0.0000 C   0  0
    0.7144    0.4125    0.0000 C   0  0
    0.0000    0.8250    0.0000 C   0  0
   -0.7144    0.4125    0.0000 C   0  0
   -1.4290    0.8250    0.0000 C   0  0
   -2.1434    0.4125    0.0000 C   0  0
   -2.8591    0.8237    0.0000 N   0  0
   -3.5734    0.4100    0.0000 C   0  0
   -3.5722   -0.2500    0.0000 O   0  0
   -4.2891    0.8213    0.0000 C   0  0
   -5.0706    0.7961    0.0000 C   0  0
   -4.6581    1.5106    0.0000 C   0  0
   -2.1434   -0.4125    0.0000 N   0  0
   -1.4290   -0.8250    0.0000 C   0  0
   -0.7144   -0.4125    0.0000 C   0  0
    0.0000   -0.8250    0.0000 C   0  0
   -2.8601    1.3737    0.0000 H   0  0
    2.8657    1.3721    0.0000 H   0  0
  1  2  1  0
  1 26  1  0
  2  3  1  0
  3  4  2  0
  4  5  1  0
  5  6  2  0
  6  7  1  0
  7  8  2  0
  8  3  1  0
  8  9  1  0
  9 10  2  0
 10 11  1  0
 11 12  2  0
 12 13  1  0
 13 14  2  0
 14 15  1  0
 14 21  1  0
 15 16  1  0
 15 25  1  0
 16 17  2  0
 16 18  1  0
 18 19  1  0
 19 20  1  0
 20 18  1  0
 21 22  2  0
 22 23  1  0
 23 12  1  0
 23 24  2  0
 24  9  1  0
M  END
> <CMPD_CHEMBLID>
CHEMBL3685191

> <STANDARD_TYPE>
Ki

> <RELATION>
=

> <STANDARD_VALUE>
0.4

> <STANDARD_UNITS>
nM

> <Molecular_Weight>
319.35718

$$$$

  SciTegic11272012012D

 33 37  0  0  0  0            999 V2000
    2.1456    0.2461    0.0000 C   0  0
    2.1445   -0.4139    0.0000 C   0  0
    2.8583   -0.8275    0.0000 C   0  0
    2.8570   -1.6525    0.0000 C   0  0
    2.1419   -2.0639    0.0000 C   0  0
    2.1389   -2.8894    0.0000 N   0  0
    1.4228   -3.2999    0.0000 C   0  0
    0.8523   -2.9681    0.0000 O   0  0
    1.4198   -4.1254    0.0000 C   0  0
    0.7516   -4.5972    0.0000 C   0  0
    1.0052   -5.3823    0.0000 C   0  0
    1.8303   -5.3836    0.0000 C   0  0
    2.0865   -4.5994    0.0000 O   0  0
    1.4281   -1.6502    0.0000 C   0  0
    1.4293   -0.8252    0.0000 C   0  0
    0.7145   -0.4125    0.0000 C   0  0
    0.7145    0.4125    0.0000 C   0  0
    0.0000    0.8250    0.0000 C   0  0
   -0.7145    0.4125    0.0000 C   0  0
   -1.4290    0.8250    0.0000 C   0  0
   -2.1434    0.4125    0.0000 C   0  0
   -2.8592    0.8237    0.0000 N   0  0
   -3.5735    0.4100    0.0000 C   0  0
   -3.5723   -0.2500    0.0000 O   0  0
   -4.2892    0.8213    0.0000 C   0  0
   -5.0706    0.7961    0.0000 C   0  0
   -4.6581    1.5106    0.0000 C   0  0
   -2.1434   -0.4125    0.0000 N   0  0
   -1.4290   -0.8250    0.0000 C   0  0
   -0.7145   -0.4125    0.0000 C   0  0
    0.0000   -0.8250    0.0000 C   0  0
   -2.8601    1.3738    0.0000 H   0  0
    2.6143   -3.1660    0.0000 H   0  0
  1  2  1  0
  2  3  2  0
  3  4  1  0
  4  5  2  0
  5  6  1  0
  5 14  1  0
  6  7  1  0
  6 33  1  0
  7  8  2  0
  7  9  1  0
  9 10  1  0
 10 11  1  0
 11 12  1  0
 12 13  1  0
 13  9  1  0
 14 15  2  0
 15  2  1  0
 15 16  1  0
 16 17  2  0
 17 18  1  0
 18 19  2  0
 19 20  1  0
 20 21  2  0
 21 22  1  0
 21 28  1  0
 22 23  1  0
 22 32  1  0
 23 24  2  0
 23 25  1  0
 25 26  1  0
 26 27  1  0
 27 25  1  0
 28 29  2  0
 29 30  1  0
 30 19  1  0
 30 31  2  0
 31 16  1  0
M  END
> <CMPD_CHEMBLID>
CHEMBL3685199

> <STANDARD_TYPE>
Ki

> <RELATION>
=

> <STANDARD_VALUE>
0.4

> <STANDARD_UNITS>
nM

> <Molecular_Weight>
415.4843

$$$$

  SciTegic11272012012D

 30 34  0  0  0  0            999 V2000
    2.1455    0.2461    0.0000 C   0  0
    2.1445   -0.4139    0.0000 C   0  0
    2.8583   -0.8275    0.0000 C   0  0
    2.8570   -1.6525    0.0000 C   0  0
    2.1419   -2.0639    0.0000 C   0  0
    2.1408   -2.7239    0.0000 F   0  0
    1.4281   -1.6502    0.0000 C   0  0
    1.4293   -0.8252    0.0000 C   0  0
    0.7144   -0.4125    0.0000 C   0  0
    0.7144    0.4125    0.0000 C   0  0
    0.0000    0.8250    0.0000 C   0  0
    0.0000    1.6500    0.0000 C   0  0
   -0.7145    2.0625    0.0000 N   0  0
   -1.4290    1.6500    0.0000 C   0  0
   -2.1447    2.0612    0.0000 N   0  0
   -2.8590    1.6475    0.0000 C   0  0
   -2.8578    0.9875    0.0000 O   0  0
   -3.5747    2.0588    0.0000 C   0  0
   -4.3561    2.0337    0.0000 C   0  0
   -3.9436    2.7481    0.0000 C   0  0
   -1.4290    0.8250    0.0000 C   0  0
   -0.7144    0.4125    0.0000 C   0  0
   -0.7144   -0.4125    0.0000 C   0  0
    0.0000   -0.8250    0.0000 N   0  0
   -1.4293   -0.8252    0.0000 C   0  0
   -2.1731   -0.4848    0.0000 C   0  0
   -2.7242   -1.0988    0.0000 C   0  0
   -2.3105   -1.8126    0.0000 O   0  0
   -1.5039   -1.6398    0.0000 C   0  0
   -2.1457    2.6112    0.0000 H   0  0
  1  2  1  0
  2  3  2  0
  3  4  1  0
  4  5  2  0
  5  6  1  0
  5  7  1  0
  7  8  2  0
  8  2  1  0
  8  9  1  0
  9 10  2  0
 10 11  1  0
 11 12  2  0
 12 13  1  0
 13 14  2  0
 14 15  1  0
 14 21  1  0
 15 16  1  0
 15 30  1  0
 16 17  2  0
 16 18  1  0
 18 19  1  0
 19 20  1  0
 20 18  1  0
 21 22  2  0
 22 11  1  0
 22 23  1  0
 23 24  2  0
 23 25  1  0
 24  9  1  0
 25 26  1  0
 26 27  1  0
 27 28  1  0
 28 29  1  0
 29 25  1  0
M  END
> <CMPD_CHEMBLID>
CHEMBL3689676

> <STANDARD_TYPE>
Ki

> <RELATION>
=

> <STANDARD_VALUE>
0.4

> <STANDARD_UNITS>
nM

> <Molecular_Weight>
391.43808

$$$$

  SciTegic11272012012D

 42 47  0  0  0  0            999 V2000
    4.1350   -8.1650    0.0000 C   0  0
    3.5628   -7.8361    0.0000 N   0  0
    2.8491   -8.2499    0.0000 C   0  0
    2.1338   -7.8387    0.0000 C   0  0
    2.1323   -7.0137    0.0000 N   0  0
    1.4175   -6.6008    0.0000 C   0  0
    1.4171   -5.7754    0.0000 C   0  0
    0.7033   -5.3617    0.0000 C   0  0
    0.7046   -4.5367    0.0000 C   0  0
    1.4198   -4.1253    0.0000 C   0  0
    2.1336   -4.5390    0.0000 C   0  0
    2.1322   -5.3640    0.0000 C   0  0
    1.4227   -3.2999    0.0000 C   0  0
    0.8523   -2.9680    0.0000 O   0  0
    2.1388   -2.8893    0.0000 N   0  0
    2.1419   -2.0639    0.0000 C   0  0
    2.8570   -1.6525    0.0000 C   0  0
    2.8583   -0.8275    0.0000 C   0  0
    2.1445   -0.4139    0.0000 C   0  0
    2.1455    0.2461    0.0000 Cl  0  0
    1.4293   -0.8252    0.0000 C   0  0
    1.4281   -1.6502    0.0000 C   0  0
    0.7144   -0.4125    0.0000 C   0  0
    0.7144    0.4125    0.0000 C   0  0
    0.0000    0.8250    0.0000 C   0  0
   -0.7144    0.4125    0.0000 C   0  0
   -1.4290    0.8250    0.0000 C   0  0
   -2.1434    0.4125    0.0000 C   0  0
   -2.8591    0.8237    0.0000 N   0  0
   -3.5734    0.4100    0.0000 C   0  0
   -3.5722   -0.2500    0.0000 O   0  0
   -4.2891    0.8213    0.0000 C   0  0
   -5.0706    0.7961    0.0000 C   0  0
   -4.6581    1.5106    0.0000 C   0  0
   -2.1434   -0.4125    0.0000 N   0  0
   -1.4290   -0.8250    0.0000 C   0  0
   -0.7144   -0.4125    0.0000 C   0  0
    0.0000   -0.8250    0.0000 C   0  0
    2.8460   -6.5999    0.0000 C   0  0
    3.5612   -7.0111    0.0000 C   0  0
   -2.8601    1.3737    0.0000 H   0  0
    2.6143   -3.1659    0.0000 H   0  0
  1  2  1  0
  2  3  1  0
  3  4  1  0
  4  5  1  0
  5  6  1  0
  5 39  1  0
  6  7  1  0
  7  8  2  0
  8  9  1  0
  9 10  2  0
 10 11  1  0
 10 13  1  0
 11 12  2  0
 12  7  1  0
 13 14  2  0
 13 15  1  0
 15 16  1  0
 15 42  1  0
 16 17  2  0
 17 18  1  0
 18 19  2  0
 19 20  1  0
 19 21  1  0
 21 22  2  0
 21 23  1  0
 22 16  1  0
 23 24  2  0
 24 25  1  0
 25 26  2  0
 26 27  1  0
 27 28  2  0
 28 29  1  0
 28 35  1  0
 29 30  1  0
 29 41  1  0
 30 31  2  0
 30 32  1  0
 32 33  1  0
 33 34  1  0
 34 32  1  0
 35 36  2  0
 36 37  1  0
 37 26  1  0
 37 38  2  0
 38 23  1  0
 39 40  1  0
 40  2  1  0
M  END
> <CMPD_CHEMBLID>
CHEMBL3689539

> <STANDARD_TYPE>
Ki

> <RELATION>
=

> <STANDARD_VALUE>
0.4

> <STANDARD_UNITS>
nM

> <Molecular_Weight>
554.08178

$$$$

  SciTegic11272012012D

 28 31  0  0  0  0            999 V2000
    2.8661    1.4822    0.0000 C   0  0
    2.8637    0.8222    0.0000 C   0  0
    3.4341    0.4902    0.0000 C   0  0
    2.1476    0.4116    0.0000 O   0  0
    2.1445   -0.4139    0.0000 C   0  0
    2.8583   -0.8275    0.0000 C   0  0
    2.8570   -1.6525    0.0000 C   0  0
    2.1419   -2.0639    0.0000 C   0  0
    2.1408   -2.7239    0.0000 F   0  0
    1.4281   -1.6502    0.0000 C   0  0
    1.4293   -0.8252    0.0000 C   0  0
    0.7145   -0.4125    0.0000 C   0  0
    0.7145    0.4125    0.0000 C   0  0
    0.0000    0.8250    0.0000 C   0  0
   -0.7145    0.4125    0.0000 C   0  0
   -1.4290    0.8250    0.0000 C   0  0
   -2.1434    0.4125    0.0000 C   0  0
   -2.8592    0.8237    0.0000 N   0  0
   -3.5735    0.4100    0.0000 C   0  0
   -3.5723   -0.2500    0.0000 O   0  0
   -4.2892    0.8213    0.0000 C   0  0
   -5.0706    0.7961    0.0000 C   0  0
   -4.6581    1.5106    0.0000 C   0  0
   -2.1434   -0.4125    0.0000 N   0  0
   -1.4290   -0.8250    0.0000 C   0  0
   -0.7145   -0.4125    0.0000 C   0  0
    0.0000   -0.8250    0.0000 C   0  0
   -2.8601    1.3738    0.0000 H   0  0
  1  2  1  0
  2  3  1  0
  2  4  1  0
  4  5  1  0
  5  6  2  0
  6  7  1  0
  7  8  2  0
  8  9  1  0
  8 10  1  0
 10 11  2  0
 11  5  1  0
 11 12  1  0
 12 13  2  0
 13 14  1  0
 14 15  2  0
 15 16  1  0
 16 17  2  0
 17 18  1  0
 17 24  1  0
 18 19  1  0
 18 28  1  0
 19 20  2  0
 19 21  1  0
 21 22  1  0
 22 23  1  0
 23 21  1  0
 24 25  2  0
 25 26  1  0
 26 15  1  0
 26 27  2  0
 27 12  1  0
M  END
> <CMPD_CHEMBLID>
CHEMBL3685019

> <STANDARD_TYPE>
Ki

> <RELATION>
=

> <STANDARD_VALUE>
0.4

> <STANDARD_UNITS>
nM

> <Molecular_Weight>
364.41274

$$$$

  SciTegic11272012012D

 37 40  0  0  0  0            999 V2000
    2.2769    1.9826    0.0000 C   0  0
    2.8501    1.6554    0.0000 O   0  0
    2.8546    0.8300    0.0000 C   0  0
    2.1416    0.4150    0.0000 C   0  0
    2.1444   -0.4100    0.0000 C   0  0
    1.4301   -0.8237    0.0000 N   0  0
    0.7144   -0.4125    0.0000 C   0  0
    0.7144    0.4125    0.0000 C   0  0
    0.0000    0.8250    0.0000 C   0  0
   -0.7144    0.4125    0.0000 N   0  0
   -0.7144   -0.4125    0.0000 C   0  0
   -1.4289   -0.8250    0.0000 C   0  0
   -1.4289   -1.6499    0.0000 C   0  0
   -2.1446   -2.0612    0.0000 C   0  0
   -2.8589   -1.6475    0.0000 C   0  0
   -3.5745   -2.0587    0.0000 C   0  0
   -4.2887   -1.6450    0.0000 C   0  0
   -5.0044   -2.0562    0.0000 N   0  0
   -5.7189   -1.6438    0.0000 C   0  0
   -6.4334   -2.0563    0.0000 C   0  0
   -6.4334   -2.8812    0.0000 N   0  0
   -7.0049   -3.2112    0.0000 C   0  0
   -5.7190   -3.2937    0.0000 C   0  0
   -5.0045   -2.8812    0.0000 C   0  0
   -0.7144   -2.0624    0.0000 C   0  0
   -0.7127   -2.8878    0.0000 O   0  0
   -0.1407   -3.2171    0.0000 C   0  0
    0.0000   -1.6499    0.0000 C   0  0
    0.0000   -0.8250    0.0000 C   0  0
    1.4293    0.8252    0.0000 C   0  0
    2.0008    1.1552    0.0000 N   0  0
    2.8603   -0.8200    0.0000 C   0  0
    2.8626   -1.4799    0.0000 Cl  0  0
    3.5733   -0.4050    0.0000 C   0  0
    3.5705    0.4200    0.0000 C   0  0
    4.1409    0.7519    0.0000 Cl  0  0
    1.4311   -1.3737    0.0000 H   0  0
  1  2  1  0
  2  3  1  0
  3  4  2  0
  4  5  1  0
  5  6  1  0
  5 32  2  0
  6  7  1  0
  6 37  1  0
  7  8  2  0
  8  9  1  0
  8 30  1  0
  9 10  2  0
 10 11  1  0
 11 12  2  0
 12 13  1  0
 13 14  1  0
 13 25  2  0
 14 15  2  0
 15 16  1  0
 16 17  1  0
 17 18  1  0
 18 19  1  0
 19 20  1  0
 20 21  1  0
 21 22  1  0
 21 23  1  0
 23 24  1  0
 24 18  1  0
 25 26  1  0
 25 28  1  0
 26 27  1  0
 28 29  2  0
 29  7  1  0
 29 11  1  0
 30 31  3  0
 32 33  1  0
 32 34  1  0
 34 35  2  0
 35  3  1  0
 35 36  1  0
M  END
> <CMPD_CHEMBLID>
CHEMBL1088240

> <STANDARD_TYPE>
IC50

> <RELATION>
=

> <STANDARD_VALUE>
0.4

> <STANDARD_UNITS>
nM

> <Molecular_Weight>
526.45746

$$$$

  SciTegic11272012012D

 25 28  0  0  0  0            999 V2000
    2.1455    0.2461    0.0000 C   0  0
    2.1445   -0.4139    0.0000 C   0  0
    2.8583   -0.8275    0.0000 C   0  0
    2.8570   -1.6525    0.0000 C   0  0
    2.1419   -2.0639    0.0000 N   0  0
    1.4281   -1.6502    0.0000 C   0  0
    1.4293   -0.8252    0.0000 C   0  0
    0.7144   -0.4125    0.0000 C   0  0
    0.7144    0.4125    0.0000 C   0  0
    0.0000    0.8250    0.0000 C   0  0
    0.0000    1.6500    0.0000 C   0  0
   -0.7145    2.0625    0.0000 N   0  0
   -1.4290    1.6500    0.0000 C   0  0
   -2.1447    2.0612    0.0000 N   0  0
   -2.8590    1.6475    0.0000 C   0  0
   -2.8578    0.9875    0.0000 O   0  0
   -3.5747    2.0588    0.0000 C   0  0
   -3.9436    2.7481    0.0000 C   0  0
   -4.3561    2.0337    0.0000 C   0  0
   -4.9223    1.6946    0.0000 F   0  0
   -1.4290    0.8250    0.0000 C   0  0
   -0.7144    0.4125    0.0000 C   0  0
   -0.7144   -0.4125    0.0000 C   0  0
    0.0000   -0.8250    0.0000 N   0  0
   -2.1457    2.6112    0.0000 H   0  0
  1  2  1  0
  2  3  2  0
  3  4  1  0
  4  5  2  0
  5  6  1  0
  6  7  2  0
  7  2  1  0
  7  8  1  0
  8  9  2  0
  9 10  1  0
 10 11  2  0
 11 12  1  0
 12 13  2  0
 13 14  1  0
 13 21  1  0
 14 15  1  0
 14 25  1  0
 15 16  2  0
 15 17  1  0
 17 18  1  0
 18 19  1  0
 19 17  1  0
 19 20  1  0
 21 22  2  0
 22 10  1  0
 22 23  1  0
 23 24  2  0
 24  8  1  0
M  END
> <CMPD_CHEMBLID>
CHEMBL3689677

> <STANDARD_TYPE>
Ki

> <RELATION>
=

> <STANDARD_VALUE>
0.4

> <STANDARD_UNITS>
nM

> <Molecular_Weight>
322.3363

$$$$

  SciTegic11272012012D

 32 36  0  0  0  0            999 V2000
    2.1456    0.2461    0.0000 C   0  0
    2.1445   -0.4139    0.0000 C   0  0
    2.8583   -0.8275    0.0000 C   0  0
    2.8570   -1.6525    0.0000 C   0  0
    2.1419   -2.0639    0.0000 C   0  0
    1.4281   -1.6502    0.0000 C   0  0
    1.4293   -0.8252    0.0000 C   0  0
    0.7145   -0.4125    0.0000 C   0  0
    0.7145    0.4125    0.0000 C   0  0
    0.0000    0.8250    0.0000 C   0  0
   -0.7145    0.4125    0.0000 C   0  0
   -1.4290    0.8250    0.0000 C   0  0
   -2.1434    0.4125    0.0000 C   0  0
   -2.8591    0.8237    0.0000 N   0  0
   -3.5734    0.4100    0.0000 C   0  0
   -3.5723   -0.2500    0.0000 O   0  0
   -4.2891    0.8213    0.0000 C   0  0
   -5.0706    0.7961    0.0000 C   0  0
   -4.6581    1.5106    0.0000 C   0  0
   -2.1434   -0.4125    0.0000 N   0  0
   -1.4290   -0.8250    0.0000 C   0  0
   -0.7145   -0.4125    0.0000 C   0  0
    0.0000   -0.8250    0.0000 C   0  0
    2.1389   -2.8893    0.0000 C   0  0
    2.7094   -3.2213    0.0000 O   0  0
    1.4227   -3.2999    0.0000 N   0  0
    1.4198   -4.1254    0.0000 C   0  0
    0.8355   -4.6794    0.0000 C   0  0
    1.4180   -5.2637    0.0000 C   0  0
    2.0023   -4.6812    0.0000 C   0  0
    0.9474   -3.0233    0.0000 H   0  0
   -2.8601    1.3737    0.0000 H   0  0
  1  2  1  0
  2  3  2  0
  3  4  1  0
  4  5  2  0
  5  6  1  0
  5 24  1  0
  6  7  2  0
  7  2  1  0
  7  8  1  0
  8  9  2  0
  9 10  1  0
 10 11  2  0
 11 12  1  0
 12 13  2  0
 13 14  1  0
 13 20  1  0
 14 15  1  0
 14 32  1  0
 15 16  2  0
 15 17  1  0
 17 18  1  0
 18 19  1  0
 19 17  1  0
 20 21  2  0
 21 22  1  0
 22 11  1  0
 22 23  2  0
 23  8  1  0
 24 25  2  0
 24 26  1  0
 26 27  1  0
 26 31  1  0
 27 28  1  0
 28 29  1  0
 29 30  1  0
 30 27  1  0
M  END
> <CMPD_CHEMBLID>
CHEMBL3689749

> <STANDARD_TYPE>
Ki

> <RELATION>
=

> <STANDARD_VALUE>
0.417

> <STANDARD_UNITS>
nM

> <Molecular_Weight>
399.4849

$$$$

  SciTegic11272012012D

 35 38  0  0  0  0            999 V2000
    2.2769    1.9826    0.0000 C   0  0
    2.8502    1.6554    0.0000 O   0  0
    2.8547    0.8300    0.0000 C   0  0
    2.1416    0.4150    0.0000 C   0  0
    2.1444   -0.4100    0.0000 C   0  0
    1.4302   -0.8237    0.0000 N   0  0
    0.7144   -0.4125    0.0000 C   0  0
    0.7144    0.4125    0.0000 C   0  0
    0.0000    0.8250    0.0000 C   0  0
   -0.7144    0.4125    0.0000 N   0  0
   -0.7144   -0.4125    0.0000 C   0  0
   -1.4290   -0.8250    0.0000 C   0  0
   -1.4290   -1.6500    0.0000 C   0  0
   -0.7144   -2.0625    0.0000 C   0  0
   -0.7127   -2.8879    0.0000 O   0  0
   -0.1407   -3.2172    0.0000 C   0  0
    0.0000   -1.6500    0.0000 C   0  0
    0.0000   -0.8250    0.0000 C   0  0
   -2.1437   -2.0627    0.0000 C   0  0
   -2.8876   -1.7223    0.0000 C   0  0
   -3.4387   -2.3363    0.0000 O   0  0
   -3.0250   -3.0501    0.0000 C   0  0
   -3.3574   -3.8041    0.0000 C   0  0
   -2.8702   -4.4705    0.0000 N   0  0
   -3.1364   -5.0744    0.0000 C   0  0
   -2.2140   -4.3993    0.0000 C   0  0
   -2.2183   -2.8773    0.0000 C   0  0
    1.4293    0.8252    0.0000 C   0  0
    2.0009    1.1552    0.0000 N   0  0
    2.8604   -0.8200    0.0000 C   0  0
    2.8627   -1.4800    0.0000 Cl  0  0
    3.5735   -0.4050    0.0000 C   0  0
    3.5706    0.4200    0.0000 C   0  0
    4.1410    0.7520    0.0000 Cl  0  0
    1.4312   -1.3737    0.0000 H   0  0
  1  2  1  0
  2  3  1  0
  3  4  2  0
  4  5  1  0
  5  6  1  0
  5 30  2  0
  6  7  1  0
  6 35  1  0
  7  8  2  0
  8  9  1  0
  8 28  1  0
  9 10  2  0
 10 11  1  0
 11 12  2  0
 12 13  1  0
 13 14  2  0
 13 19  1  0
 14 15  1  0
 14 17  1  0
 15 16  1  0
 17 18  2  0
 18  7  1  0
 18 11  1  0
 19 20  2  0
 20 21  1  0
 21 22  1  0
 22 23  1  0
 22 27  2  0
 23 24  1  0
 24 25  1  0
 24 26  1  0
 27 19  1  0
 28 29  3  0
 30 31  1  0
 30 32  1  0
 32 33  2  0
 33  3  1  0
 33 34  1  0
M  END
> <CMPD_CHEMBLID>
CHEMBL219964

> <STANDARD_TYPE>
IC50

> <RELATION>
=

> <STANDARD_VALUE>
0.43

> <STANDARD_UNITS>
nM

> <Molecular_Weight>
497.37318

$$$$

  SciTegic11272012012D

 44 49  0  0  0  0            999 V2000
    2.2769    1.9826    0.0000 C   0  0
    2.8502    1.6554    0.0000 O   0  0
    2.8547    0.8300    0.0000 C   0  0
    2.1416    0.4150    0.0000 C   0  0
    2.1444   -0.4100    0.0000 C   0  0
    1.4302   -0.8237    0.0000 N   0  0
    0.7144   -0.4125    0.0000 C   0  0
    0.7144    0.4125    0.0000 C   0  0
    0.0000    0.8250    0.0000 C   0  0
   -0.7144    0.4125    0.0000 N   0  0
   -0.7144   -0.4125    0.0000 C   0  0
   -1.4290   -0.8250    0.0000 C   0  0
   -1.4290   -1.6500    0.0000 C   0  0
   -0.7144   -2.0625    0.0000 C   0  0
   -0.7127   -2.8879    0.0000 O   0  0
   -0.1407   -3.2172    0.0000 C   0  0
    0.0000   -1.6500    0.0000 C   0  0
    0.0000   -0.8250    0.0000 C   0  0
   -2.1437   -2.0627    0.0000 C   0  0
   -2.8876   -1.7223    0.0000 C   0  0
   -3.4387   -2.3363    0.0000 O   0  0
   -3.0250   -3.0501    0.0000 C   0  0
   -3.3574   -3.8041    0.0000 C   0  0
   -2.8702   -4.4705    0.0000 N   0  0
   -3.2019   -5.2259    0.0000 C   0  0
   -2.7136   -5.8908    0.0000 C   0  0
   -1.8935   -5.8005    0.0000 N   0  0
   -1.5618   -5.0451    0.0000 C   0  0
   -2.0501   -4.3801    0.0000 C   0  0
   -1.4050   -6.4657    0.0000 C   0  0
   -1.7355   -7.2217    0.0000 C   0  0
   -1.2461   -7.8859    0.0000 C   0  0
   -0.4263   -7.7942    0.0000 C   0  0
   -0.0957   -7.0383    0.0000 C   0  0
   -0.5851   -6.3741    0.0000 C   0  0
   -2.2183   -2.8773    0.0000 C   0  0
    1.4293    0.8252    0.0000 C   0  0
    2.0009    1.1552    0.0000 N   0  0
    2.8604   -0.8200    0.0000 C   0  0
    2.8627   -1.4800    0.0000 Cl  0  0
    3.5735   -0.4050    0.0000 C   0  0
    3.5706    0.4200    0.0000 C   0  0
    4.1410    0.7520    0.0000 Cl  0  0
    1.4312   -1.3737    0.0000 H   0  0
  1  2  1  0
  2  3  1  0
  3  4  2  0
  4  5  1  0
  5  6  1  0
  5 39  2  0
  6  7  1  0
  6 44  1  0
  7  8  2  0
  8  9  1  0
  8 37  1  0
  9 10  2  0
 10 11  1  0
 11 12  2  0
 12 13  1  0
 13 14  2  0
 13 19  1  0
 14 15  1  0
 14 17  1  0
 15 16  1  0
 17 18  2  0
 18  7  1  0
 18 11  1  0
 19 20  2  0
 20 21  1  0
 21 22  1  0
 22 23  1  0
 22 36  2  0
 23 24  1  0
 24 25  1  0
 25 26  1  0
 26 27  1  0
 27 28  1  0
 27 30  1  0
 28 29  1  0
 29 24  1  0
 30 31  2  0
 31 32  1  0
 32 33  2  0
 33 34  1  0
 34 35  2  0
 35 30  1  0
 36 19  1  0
 37 38  3  0
 39 40  1  0
 39 41  1  0
 41 42  2  0
 42  3  1  0
 42 43  1  0
M  END
> <CMPD_CHEMBLID>
CHEMBL278495

> <STANDARD_TYPE>
IC50

> <RELATION>
=

> <STANDARD_VALUE>
0.43

> <STANDARD_UNITS>
nM

> <Molecular_Weight>
614.52106

$$$$

  SciTegic11272012012D

 44 49  0  0  0  0            999 V2000
    7.8486    4.3779    0.0000 C   0  0
    7.8509    3.7179    0.0000 N   0  0
    8.5668    3.3079    0.0000 C   0  0
    8.5697    2.4829    0.0000 C   0  0
    7.8566    2.0679    0.0000 N   0  0
    7.8578    1.2424    0.0000 C   0  0
    7.1438    0.8282    0.0000 C   0  0
    6.4293    1.2407    0.0000 C   0  0
    5.7149    0.8282    0.0000 C   0  0
    5.7148    0.0032    0.0000 C   0  0
    5.0008   -0.4110    0.0000 N   0  0
    5.0020   -1.2365    0.0000 C   0  0
    5.5742   -1.5655    0.0000 O   0  0
    4.2880   -1.6507    0.0000 C   0  0
    4.2880   -2.4757    0.0000 C   0  0
    3.5735   -2.8882    0.0000 C   0  0
    2.8591   -2.4757    0.0000 C   0  0
    2.2875   -2.8057    0.0000 C   0  0
    2.8591   -1.6507    0.0000 C   0  0
    3.5735   -1.2382    0.0000 C   0  0
    2.1442   -1.2379    0.0000 C   0  0
    1.4293   -0.8252    0.0000 C   0  0
    0.7144   -0.4125    0.0000 C   0  0
    0.7144    0.4125    0.0000 C   0  0
    0.0000    0.8250    0.0000 N   0  0
   -0.7144    0.4125    0.0000 C   0  0
   -1.4986    0.6674    0.0000 N   0  0
   -1.9836    0.0000    0.0000 N   0  0
   -1.4986   -0.6674    0.0000 C   0  0
   -1.7536   -1.4525    0.0000 C   0  0
   -2.3021   -2.0066    0.0000 C   0  0
   -1.4979   -2.1904    0.0000 C   0  0
   -0.7144   -0.4125    0.0000 C   0  0
    0.0000   -0.8250    0.0000 C   0  0
    6.4294   -0.4093    0.0000 C   0  0
    7.1438    0.0032    0.0000 C   0  0
    7.8587   -0.4095    0.0000 C   0  0
    7.8592   -1.0695    0.0000 F   0  0
    8.4302   -0.0793    0.0000 F   0  0
    8.4305   -0.7392    0.0000 F   0  0
    7.1407    2.4780    0.0000 C   0  0
    7.1378    3.3030    0.0000 C   0  0
   -1.6685    1.1905    0.0000 H   0  0
    4.5241   -0.1368    0.0000 H   0  0
  1  2  1  0
  2  3  1  0
  3  4  1  0
  4  5  1  0
  5  6  1  0
  5 41  1  0
  6  7  1  0
  7  8  2  0
  8  9  1  0
  9 10  2  0
 10 11  1  0
 10 35  1  0
 11 12  1  0
 11 44  1  0
 12 13  2  0
 12 14  1  0
 14 15  2  0
 15 16  1  0
 16 17  2  0
 17 18  1  0
 17 19  1  0
 19 20  2  0
 19 21  1  0
 20 14  1  0
 21 22  3  0
 22 23  1  0
 23 24  2  0
 24 25  1  0
 25 26  2  0
 26 27  1  0
 27 28  1  0
 27 43  1  0
 28 29  2  0
 29 30  1  0
 29 33  1  0
 30 31  1  0
 31 32  1  0
 32 30  1  0
 33 26  1  0
 33 34  2  0
 34 23  1  0
 35 36  2  0
 36  7  1  0
 36 37  1  0
 37 38  1  0
 37 39  1  0
 37 40  1  0
 41 42  1  0
 42  2  1  0
M  END
> <CMPD_CHEMBLID>
CHEMBL2316870

> <STANDARD_TYPE>
IC50

> <RELATION>
=

> <STANDARD_VALUE>
0.43

> <STANDARD_UNITS>
nM

> <Molecular_Weight>
572.62335

$$$$

  SciTegic11272012012D

 37 41  0  0  0  0            999 V2000
    2.2769    1.9826    0.0000 C   0  0
    2.8502    1.6554    0.0000 O   0  0
    2.8547    0.8300    0.0000 C   0  0
    2.1416    0.4150    0.0000 C   0  0
    2.1444   -0.4100    0.0000 C   0  0
    1.4302   -0.8237    0.0000 N   0  0
    0.7144   -0.4125    0.0000 C   0  0
    0.7144    0.4125    0.0000 C   0  0
    0.0000    0.8250    0.0000 C   0  0
   -0.7144    0.4125    0.0000 N   0  0
   -0.7144   -0.4125    0.0000 C   0  0
   -1.4290   -0.8250    0.0000 C   0  0
   -1.4290   -1.6500    0.0000 C   0  0
   -0.7144   -2.0625    0.0000 C   0  0
    0.0000   -1.6500    0.0000 C   0  0
    0.0000   -0.8250    0.0000 C   0  0
   -2.1437   -2.0627    0.0000 C   0  0
   -2.8876   -1.7223    0.0000 C   0  0
   -3.4387   -2.3363    0.0000 O   0  0
   -3.0250   -3.0501    0.0000 C   0  0
   -3.3574   -3.8041    0.0000 C   0  0
   -2.8702   -4.4705    0.0000 N   0  0
   -3.2019   -5.2259    0.0000 C   0  0
   -2.7136   -5.8908    0.0000 C   0  0
   -1.8935   -5.8005    0.0000 N   0  0
   -1.5029   -6.3324    0.0000 C   0  0
   -1.5618   -5.0451    0.0000 C   0  0
   -2.0501   -4.3801    0.0000 C   0  0
   -2.2183   -2.8773    0.0000 C   0  0
    1.4293    0.8252    0.0000 C   0  0
    2.0009    1.1552    0.0000 N   0  0
    2.8604   -0.8200    0.0000 C   0  0
    2.8627   -1.4800    0.0000 Cl  0  0
    3.5735   -0.4050    0.0000 C   0  0
    3.5706    0.4200    0.0000 C   0  0
    4.1410    0.7520    0.0000 Cl  0  0
    1.4312   -1.3737    0.0000 H   0  0
  1  2  1  0
  2  3  1  0
  3  4  2  0
  4  5  1  0
  5  6  1  0
  5 32  2  0
  6  7  1  0
  6 37  1  0
  7  8  2  0
  8  9  1  0
  8 30  1  0
  9 10  2  0
 10 11  1  0
 11 12  2  0
 12 13  1  0
 13 14  2  0
 13 17  1  0
 14 15  1  0
 15 16  2  0
 16  7  1  0
 16 11  1  0
 17 18  2  0
 18 19  1  0
 19 20  1  0
 20 21  1  0
 20 29  2  0
 21 22  1  0
 22 23  1  0
 23 24  1  0
 24 25  1  0
 25 26  1  0
 25 27  1  0
 27 28  1  0
 28 22  1  0
 29 17  1  0
 30 31  3  0
 32 33  1  0
 32 34  1  0
 34 35  2  0
 35  3  1  0
 35 36  1  0
M  END
> <CMPD_CHEMBLID>
CHEMBL219260

> <STANDARD_TYPE>
IC50

> <RELATION>
=

> <STANDARD_VALUE>
0.43

> <STANDARD_UNITS>
nM

> <Molecular_Weight>
522.4257

$$$$

  SciTegic11272012012D

 27 30  0  0  0  0            999 V2000
    3.2006   -4.6577    0.0000 C   0  0
    3.2091   -3.9977    0.0000 C   0  0
    2.5000   -3.5754    0.0000 O   0  0
    2.5103   -2.7557    0.0000 C   0  0
    2.9228   -2.0412    0.0000 C   0  0
    2.1413   -2.0663    0.0000 C   0  0
    1.4273   -1.6521    0.0000 C   0  0
    0.8551   -1.9812    0.0000 O   0  0
    1.4285   -0.8267    0.0000 N   0  0
    0.7144   -0.4125    0.0000 C   0  0
    0.7144    0.4125    0.0000 C   0  0
    0.0000    0.8250    0.0000 C   0  0
    0.0000    1.6500    0.0000 C   0  0
   -0.7145    2.0625    0.0000 C   0  0
   -1.4290    1.6500    0.0000 C   0  0
   -1.4290    0.8250    0.0000 C   0  0
   -0.7144    0.4125    0.0000 C   0  0
   -0.7144   -0.4125    0.0000 C   0  0
    0.0000   -0.8250    0.0000 N   0  0
   -2.1438    2.0627    0.0000 C   0  0
   -2.8576    1.6491    0.0000 C   0  0
   -3.5728    2.0605    0.0000 N   0  0
   -3.5741    2.8855    0.0000 C   0  0
   -2.8603    3.2991    0.0000 C   0  0
   -2.1452    2.8877    0.0000 C   0  0
   -1.5741    3.2187    0.0000 C   0  0
    1.9053   -0.5525    0.0000 H   0  0
  1  2  1  0
  2  3  1  0
  3  4  1  0
  4  5  1  0
  5  6  1  0
  6  4  1  0
  6  7  1  0
  7  8  2  0
  7  9  1  0
  9 10  1  0
  9 27  1  0
 10 11  2  0
 11 12  1  0
 12 13  2  0
 13 14  1  0
 14 15  2  0
 15 16  1  0
 15 20  1  0
 16 17  2  0
 17 12  1  0
 17 18  1  0
 18 19  2  0
 19 10  1  0
 20 21  2  0
 21 22  1  0
 22 23  2  0
 23 24  1  0
 24 25  2  0
 25 20  1  0
 25 26  1  0
M  END
> <CMPD_CHEMBLID>
CHEMBL3689728

> <STANDARD_TYPE>
Ki

> <RELATION>
=

> <STANDARD_VALUE>
0.45

> <STANDARD_UNITS>
nM

> <Molecular_Weight>
347.41034

$$$$

  SciTegic11272012012D

 34 38  0  0  0  0            999 V2000
    1.2861   -0.7425    0.0000 C   0  0
    0.7145   -0.4125    0.0000 C   0  0
    0.7145    0.4125    0.0000 C   0  0
    0.0000    0.8250    0.0000 C   0  0
   -0.7145    0.4125    0.0000 C   0  0
   -1.4986    0.6674    0.0000 N   0  0
   -1.9836    0.0000    0.0000 N   0  0
   -1.4986   -0.6674    0.0000 C   0  0
   -0.7145   -0.4125    0.0000 C   0  0
    0.0000   -0.8250    0.0000 C   0  0
    0.0017   -1.6504    0.0000 C   0  0
    0.7171   -2.0622    0.0000 C   0  0
    0.7189   -2.8876    0.0000 N   0  0
    0.0515   -3.3607    0.0000 C   0  0
    0.3066   -4.1453    0.0000 N   0  0
    1.1311   -4.1450    0.0000 C   0  0
    1.6833   -4.7580    0.0000 C   0  0
    1.4300   -5.5436    0.0000 N   0  0
    1.9833   -6.1561    0.0000 C   0  0
    1.7312   -6.9417    0.0000 C   0  0
    2.2855   -7.5528    0.0000 C   0  0
    3.0918   -7.3783    0.0000 C   0  0
    3.3439   -6.5928    0.0000 C   0  0
    2.7897   -5.9817    0.0000 C   0  0
    3.6463   -7.9898    0.0000 P   0  0
    3.4451   -8.6184    0.0000 O   0  0
    4.2914   -7.8500    0.0000 C   0  0
    4.0900   -8.4784    0.0000 C   0  0
    2.4902   -4.5863    0.0000 N   0  0
    2.7451   -3.8016    0.0000 C   0  0
    2.1929   -3.1886    0.0000 N   0  0
    1.3860   -3.3603    0.0000 C   0  0
    0.8922   -5.6590    0.0000 H   0  0
   -1.6685    1.1905    0.0000 H   0  0
  1  2  1  0
  2  3  2  0
  3  4  1  0
  4  5  2  0
  5  6  1  0
  6  7  1  0
  6 34  1  0
  7  8  2  0
  8  9  1  0
  9  5  1  0
  9 10  2  0
 10  2  1  0
 10 11  1  0
 11 12  2  0
 12 13  1  0
 13 14  1  0
 14 15  2  0
 15 16  1  0
 16 17  2  0
 17 18  1  0
 17 29  1  0
 18 19  1  0
 18 33  1  0
 19 20  2  0
 20 21  1  0
 21 22  2  0
 22 23  1  0
 22 25  1  0
 23 24  2  0
 24 19  1  0
 25 26  2  0
 25 27  1  0
 25 28  1  0
 29 30  2  0
 30 31  1  0
 31 32  2  0
 32 13  1  0
 32 16  1  0
M  END
> <CMPD_CHEMBLID>
CHEMBL510893

> <STANDARD_TYPE>
IC50

> <RELATION>
<

> <STANDARD_VALUE>
0.46

> <STANDARD_UNITS>
nM

> <Molecular_Weight>
443.44084

$$$$

  SciTegic11272012012D

 35 38  0  0  0  0            999 V2000
   -1.6849   -2.8448    0.0000 C   0  0
   -1.4810   -3.4726    0.0000 C   0  0
   -2.0332   -4.0855    0.0000 C   0  0
   -1.7784   -4.8702    0.0000 C   0  0
   -0.9714   -5.0419    0.0000 C   0  0
   -0.4193   -4.4288    0.0000 C   0  0
    0.2263   -4.5662    0.0000 C   0  0
   -0.6741   -3.6442    0.0000 C   0  0
   -0.1229   -3.0297    0.0000 C   0  0
   -0.3789   -2.2450    0.0000 C   0  0
    0.1713   -1.6316    0.0000 N   0  0
    0.9918   -1.7178    0.0000 C   0  0
    1.3273   -0.9641    0.0000 N   0  0
    0.7144   -0.4125    0.0000 C   0  0
    0.7144    0.4125    0.0000 C   0  0
    1.4285    0.8267    0.0000 N   0  0
    1.4273    1.6521    0.0000 C   0  0
    2.1403    2.0672    0.0000 C   0  0
    2.1375    2.8922    0.0000 C   0  0
    1.4216    3.3022    0.0000 C   0  0
    0.7086    2.8872    0.0000 C   0  0
    0.7114    2.0622    0.0000 C   0  0
    1.4187    4.1276    0.0000 P   0  0
    1.9889    4.4600    0.0000 O   0  0
    0.8459    4.4555    0.0000 C   0  0
    1.4161    4.7876    0.0000 C   0  0
    0.0000    0.8250    0.0000 N   0  0
   -0.7144    0.4125    0.0000 C   0  0
   -1.4302    0.8237    0.0000 C   0  0
   -2.1444    0.4100    0.0000 C   0  0
   -2.8601    0.8213    0.0000 C   0  0
   -3.4324    1.1500    0.0000 N   0  0
   -0.7144   -0.4125    0.0000 N   0  0
    0.0000   -0.8250    0.0000 C   0  0
    1.9052    0.5525    0.0000 H   0  0
  1  2  1  0
  2  3  2  0
  3  4  1  0
  4  5  2  0
  5  6  1  0
  6  7  1  0
  6  8  2  0
  8  2  1  0
  8  9  1  0
  9 10  2  0
 10 11  1  0
 11 12  1  0
 12 13  2  0
 13 14  1  0
 14 15  2  0
 15 16  1  0
 15 27  1  0
 16 17  1  0
 16 35  1  0
 17 18  2  0
 18 19  1  0
 19 20  2  0
 20 21  1  0
 20 23  1  0
 21 22  2  0
 22 17  1  0
 23 24  2  0
 23 25  1  0
 23 26  1  0
 27 28  2  0
 28 29  1  0
 28 33  1  0
 29 30  1  0
 30 31  1  0
 31 32  3  0
 33 34  2  0
 34 11  1  0
 34 14  1  0
M  END
> <CMPD_CHEMBLID>
CHEMBL517256

> <STANDARD_TYPE>
IC50

> <RELATION>
<

> <STANDARD_VALUE>
0.46

> <STANDARD_UNITS>
nM

> <Molecular_Weight>
470.50594

$$$$

  SciTegic11272012012D

 38 42  0  0  0  0            999 V2000
    3.4280   -1.9834    0.0000 C   0  0
    2.8570   -1.6525    0.0000 N   0  0
    2.8583   -0.8275    0.0000 C   0  0
    2.1445   -0.4139    0.0000 C   0  0
    1.4293   -0.8252    0.0000 C   0  0
    1.4281   -1.6502    0.0000 C   0  0
    2.1419   -2.0639    0.0000 C   0  0
    0.7144   -0.4125    0.0000 C   0  0
    0.7144    0.4125    0.0000 N   0  0
    0.0000    0.8250    0.0000 C   0  0
    0.0017    1.6504    0.0000 N   0  0
    0.7171    2.0622    0.0000 C   0  0
    0.7201    2.8872    0.0000 C   0  0
    1.4359    3.2972    0.0000 C   0  0
    2.1490    2.8823    0.0000 C   0  0
    2.1461    2.0573    0.0000 C   0  0
    1.4302    1.6472    0.0000 C   0  0
    2.8653    3.2925    0.0000 P   0  0
    2.8680    3.9525    0.0000 O   0  0
    3.4356    2.9604    0.0000 C   0  0
    3.4381    3.6203    0.0000 C   0  0
   -0.7144    0.4125    0.0000 C   0  0
   -1.4986    0.6674    0.0000 N   0  0
   -1.9836    0.0000    0.0000 C   0  0
   -1.4986   -0.6674    0.0000 N   0  0
   -1.7547   -1.4507    0.0000 C   0  0
   -2.5623   -1.6213    0.0000 C   0  0
   -2.8189   -2.4059    0.0000 C   0  0
   -3.6259   -2.5776    0.0000 C   0  0
   -4.0676   -2.0872    0.0000 C   0  0
   -3.8807   -3.3623    0.0000 C   0  0
   -3.3285   -3.9752    0.0000 C   0  0
   -2.5216   -3.8036    0.0000 C   0  0
   -2.2668   -3.0189    0.0000 C   0  0
   -1.6212   -2.8816    0.0000 C   0  0
   -0.7144   -0.4125    0.0000 C   0  0
    0.0000   -0.8250    0.0000 N   0  0
   -0.4742    1.9263    0.0000 H   0  0
  1  2  1  0
  2  3  1  0
  3  4  1  0
  4  5  1  0
  5  6  1  0
  5  8  1  0
  6  7  1  0
  7  2  1  0
  8  9  2  0
  9 10  1  0
 10 11  1  0
 10 22  2  0
 11 12  1  0
 11 38  1  0
 12 13  2  0
 13 14  1  0
 14 15  2  0
 15 16  1  0
 15 18  1  0
 16 17  2  0
 17 12  1  0
 18 19  2  0
 18 20  1  0
 18 21  1  0
 22 23  1  0
 23 24  2  0
 24 25  1  0
 25 26  1  0
 25 36  1  0
 26 27  2  0
 27 28  1  0
 28 29  2  0
 29 30  1  0
 29 31  1  0
 31 32  2  0
 32 33  1  0
 33 34  2  0
 34 28  1  0
 34 35  1  0
 36 22  1  0
 36 37  2  0
 37  8  1  0
M  END
> <CMPD_CHEMBLID>
CHEMBL461768

> <STANDARD_TYPE>
IC50

> <RELATION>
<

> <STANDARD_VALUE>
0.46

> <STANDARD_UNITS>
nM

> <Molecular_Weight>
514.60156

$$$$

  SciTegic11272012012D

 24 27  0  0  0  0            999 V2000
    2.1456    0.2461    0.0000 C   0  0
    2.1446   -0.4139    0.0000 C   0  0
    2.8584   -0.8275    0.0000 N   0  0
    2.8570   -1.6525    0.0000 C   0  0
    2.1419   -2.0639    0.0000 N   0  0
    1.4281   -1.6503    0.0000 C   0  0
    1.4293   -0.8252    0.0000 C   0  0
    0.7145   -0.4125    0.0000 C   0  0
    0.7145    0.4125    0.0000 C   0  0
    0.0000    0.8250    0.0000 C   0  0
   -0.7145    0.4125    0.0000 C   0  0
   -1.4290    0.8250    0.0000 C   0  0
   -2.1435    0.4125    0.0000 C   0  0
   -2.8592    0.8238    0.0000 N   0  0
   -3.5735    0.4100    0.0000 C   0  0
   -3.5723   -0.2500    0.0000 O   0  0
   -4.2892    0.8213    0.0000 C   0  0
   -5.0707    0.7961    0.0000 C   0  0
   -4.6582    1.5106    0.0000 C   0  0
   -2.1435   -0.4125    0.0000 N   0  0
   -1.4290   -0.8250    0.0000 C   0  0
   -0.7145   -0.4125    0.0000 C   0  0
    0.0000   -0.8250    0.0000 C   0  0
   -2.8602    1.3738    0.0000 H   0  0
  1  2  1  0
  2  3  2  0
  3  4  1  0
  4  5  2  0
  5  6  1  0
  6  7  2  0
  7  2  1  0
  7  8  1  0
  8  9  2  0
  9 10  1  0
 10 11  2  0
 11 12  1  0
 12 13  2  0
 13 14  1  0
 13 20  1  0
 14 15  1  0
 14 24  1  0
 15 16  2  0
 15 17  1  0
 17 18  1  0
 18 19  1  0
 19 17  1  0
 20 21  2  0
 21 22  1  0
 22 11  1  0
 22 23  2  0
 23  8  1  0
M  END
> <CMPD_CHEMBLID>
CHEMBL3685074

> <STANDARD_TYPE>
Ki

> <RELATION>
=

> <STANDARD_VALUE>
0.5

> <STANDARD_UNITS>
nM

> <Molecular_Weight>
304.34584

$$$$

  SciTegic11272012012D

 24 26  0  0  0  0            999 V2000
    2.1404   -2.7264    0.0000 C   0  0
    2.1413   -2.0663    0.0000 C   0  0
    1.4273   -1.6521    0.0000 C   0  0
    0.8551   -1.9812    0.0000 O   0  0
    1.4285   -0.8267    0.0000 N   0  0
    0.7144   -0.4125    0.0000 C   0  0
    0.7144    0.4125    0.0000 C   0  0
    0.0000    0.8250    0.0000 C   0  0
    0.0000    1.6500    0.0000 C   0  0
   -0.7145    2.0625    0.0000 C   0  0
   -1.4290    1.6500    0.0000 C   0  0
   -1.4290    0.8250    0.0000 C   0  0
   -0.7144    0.4125    0.0000 C   0  0
   -0.7144   -0.4125    0.0000 C   0  0
    0.0000   -0.8250    0.0000 N   0  0
   -2.1438    2.0627    0.0000 C   0  0
   -2.8576    1.6491    0.0000 C   0  0
   -3.5728    2.0605    0.0000 C   0  0
   -4.1438    1.7295    0.0000 F   0  0
   -3.5741    2.8855    0.0000 C   0  0
   -2.8603    3.2991    0.0000 C   0  0
   -2.1452    2.8877    0.0000 C   0  0
   -1.5741    3.2187    0.0000 C   0  0
    1.9053   -0.5525    0.0000 H   0  0
  1  2  1  0
  2  3  1  0
  3  4  2  0
  3  5  1  0
  5  6  1  0
  5 24  1  0
  6  7  2  0
  7  8  1  0
  8  9  2  0
  9 10  1  0
 10 11  2  0
 11 12  1  0
 11 16  1  0
 12 13  2  0
 13  8  1  0
 13 14  1  0
 14 15  2  0
 15  6  1  0
 16 17  2  0
 17 18  1  0
 18 19  1  0
 18 20  2  0
 20 21  1  0
 21 22  2  0
 22 16  1  0
 22 23  1  0
M  END
> <CMPD_CHEMBLID>
CHEMBL3685057

> <STANDARD_TYPE>
Ki

> <RELATION>
=

> <STANDARD_VALUE>
0.5

> <STANDARD_UNITS>
nM

> <Molecular_Weight>
308.34948

$$$$

  SciTegic11272012012D

 23 25  0  0  0  0            999 V2000
    0.8552   -1.9812    0.0000 C   0  0
    1.4273   -1.6522    0.0000 C   0  0
    2.1414   -2.0664    0.0000 C   0  0
    2.1402   -2.8919    0.0000 O   0  0
    1.4285   -0.8267    0.0000 C   0  0
    0.7145   -0.4125    0.0000 C   0  0
    0.7145    0.4125    0.0000 C   0  0
    0.0000    0.8250    0.0000 C   0  0
   -0.7145    0.4125    0.0000 C   0  0
   -1.4290    0.8250    0.0000 C   0  0
   -2.1435    0.4125    0.0000 C   0  0
   -2.8592    0.8238    0.0000 N   0  0
   -3.5735    0.4100    0.0000 C   0  0
   -3.5723   -0.2500    0.0000 O   0  0
   -4.2892    0.8213    0.0000 C   0  0
   -5.0707    0.7961    0.0000 C   0  0
   -4.6582    1.5106    0.0000 C   0  0
   -2.1435   -0.4125    0.0000 N   0  0
   -1.4290   -0.8250    0.0000 C   0  0
   -0.7145   -0.4125    0.0000 C   0  0
    0.0000   -0.8250    0.0000 C   0  0
   -2.8602    1.3738    0.0000 H   0  0
    2.6160   -3.1678    0.0000 H   0  0
  1  2  1  0
  2  3  1  0
  2  5  1  0
  3  4  1  0
  4 23  1  0
  5  6  1  0
  6  7  2  0
  7  8  1  0
  8  9  2  0
  9 10  1  0
 10 11  2  0
 11 12  1  0
 11 18  1  0
 12 13  1  0
 12 22  1  0
 13 14  2  0
 13 15  1  0
 15 16  1  0
 16 17  1  0
 17 15  1  0
 18 19  2  0
 19 20  1  0
 20  9  1  0
 20 21  2  0
 21  6  1  0
M  END
> <CMPD_CHEMBLID>
CHEMBL3689542

> <STANDARD_TYPE>
Ki

> <RELATION>
=

> <STANDARD_VALUE>
0.5

> <STANDARD_UNITS>
nM

> <Molecular_Weight>
284.3529

$$$$

  SciTegic11272012012D

 37 40  0  0  0  0            999 V2000
    2.2769    1.9826    0.0000 C   0  0
    2.8501    1.6554    0.0000 O   0  0
    2.8546    0.8300    0.0000 C   0  0
    2.1416    0.4150    0.0000 C   0  0
    2.1444   -0.4100    0.0000 C   0  0
    1.4302   -0.8237    0.0000 N   0  0
    0.7144   -0.4125    0.0000 C   0  0
    0.7144    0.4125    0.0000 C   0  0
    0.0000    0.8250    0.0000 C   0  0
   -0.7144    0.4125    0.0000 N   0  0
   -0.7144   -0.4125    0.0000 C   0  0
   -1.4289   -0.8250    0.0000 C   0  0
   -1.4289   -1.6500    0.0000 C   0  0
   -2.1446   -2.0613    0.0000 O   0  0
   -2.8589   -1.6475    0.0000 C   0  0
   -3.5746   -2.0588    0.0000 C   0  0
   -4.2889   -1.6450    0.0000 C   0  0
   -5.0046   -2.0563    0.0000 N   0  0
   -5.7191   -1.6438    0.0000 C   0  0
   -6.4336   -2.0563    0.0000 C   0  0
   -6.4336   -2.8813    0.0000 N   0  0
   -7.0051   -3.2113    0.0000 C   0  0
   -5.7191   -3.2938    0.0000 C   0  0
   -5.0046   -2.8813    0.0000 C   0  0
   -0.7144   -2.0625    0.0000 C   0  0
   -0.7127   -2.8879    0.0000 O   0  0
   -0.1407   -3.2171    0.0000 C   0  0
    0.0000   -1.6500    0.0000 C   0  0
    0.0000   -0.8250    0.0000 C   0  0
    1.4293    0.8252    0.0000 C   0  0
    2.0009    1.1552    0.0000 N   0  0
    2.8604   -0.8200    0.0000 C   0  0
    2.8627   -1.4800    0.0000 Cl  0  0
    3.5734   -0.4050    0.0000 C   0  0
    3.5706    0.4200    0.0000 C   0  0
    4.1410    0.7520    0.0000 Cl  0  0
    1.4311   -1.3737    0.0000 H   0  0
  1  2  1  0
  2  3  1  0
  3  4  2  0
  4  5  1  0
  5  6  1  0
  5 32  2  0
  6  7  1  0
  6 37  1  0
  7  8  2  0
  8  9  1  0
  8 30  1  0
  9 10  2  0
 10 11  1  0
 11 12  2  0
 12 13  1  0
 13 14  1  0
 13 25  2  0
 14 15  1  0
 15 16  1  0
 16 17  1  0
 17 18  1  0
 18 19  1  0
 19 20  1  0
 20 21  1  0
 21 22  1  0
 21 23  1  0
 23 24  1  0
 24 18  1  0
 25 26  1  0
 25 28  1  0
 26 27  1  0
 28 29  2  0
 29  7  1  0
 29 11  1  0
 30 31  3  0
 32 33  1  0
 32 34  1  0
 34 35  2  0
 35  3  1  0
 35 36  1  0
M  END
> <CMPD_CHEMBLID>
CHEMBL288441

> <STANDARD_TYPE>
IC50

> <RELATION>
=

> <STANDARD_VALUE>
0.5

> <STANDARD_UNITS>
nM

> <Molecular_Weight>
530.44616

$$$$

  SciTegic11272012012D

 37 41  0  0  0  0            999 V2000
   -1.3083   -5.6780    0.0000 C   0  0
   -0.7345   -5.3520    0.0000 N   0  0
   -0.0229   -5.7694    0.0000 C   0  0
    0.6944   -5.3618    0.0000 C   0  0
    0.7002   -4.5369    0.0000 N   0  0
   -0.0115   -4.1194    0.0000 C   0  0
   -0.7287   -4.5270    0.0000 C   0  0
    1.4171   -4.1276    0.0000 C   0  0
    1.9869   -4.4606    0.0000 O   0  0
    1.4216   -3.3022    0.0000 C   0  0
    2.1375   -2.8922    0.0000 C   0  0
    2.1403   -2.0672    0.0000 C   0  0
    1.4273   -1.6521    0.0000 C   0  0
    1.4285   -0.8267    0.0000 N   0  0
    0.7144   -0.4125    0.0000 C   0  0
    0.7144    0.4125    0.0000 N   0  0
    0.0000    0.8250    0.0000 N   0  0
   -0.7144    0.4125    0.0000 C   0  0
   -1.4289    0.8250    0.0000 C   0  0
   -2.1434    0.4125    0.0000 C   0  0
   -2.1434   -0.4125    0.0000 C   0  0
   -1.4289   -0.8250    0.0000 C   0  0
   -1.4289   -1.4850    0.0000 C   0  0
   -0.7144   -0.4125    0.0000 C   0  0
    0.0000   -0.8250    0.0000 N   0  0
   -2.8582    0.8252    0.0000 C   0  0
   -3.5721    0.4116    0.0000 C   0  0
   -4.2872    0.8230    0.0000 C   0  0
   -5.0023    0.4106    0.0000 O   0  0
   -4.2885    1.6480    0.0000 C   0  0
   -3.5747    2.0616    0.0000 C   0  0
   -2.8596    1.6502    0.0000 C   0  0
   -2.2885    1.9811    0.0000 Cl  0  0
    0.7114   -2.0622    0.0000 C   0  0
    0.7086   -2.8872    0.0000 C   0  0
   -5.4786    0.6855    0.0000 H   0  0
    1.9053   -0.5525    0.0000 H   0  0
  1  2  1  0
  2  3  1  0
  3  4  1  0
  4  5  1  0
  5  6  1  0
  5  8  1  0
  6  7  1  0
  7  2  1  0
  8  9  2  0
  8 10  1  0
 10 11  2  0
 11 12  1  0
 12 13  2  0
 13 14  1  0
 13 34  1  0
 14 15  1  0
 14 37  1  0
 15 16  2  0
 16 17  1  0
 17 18  2  0
 18 19  1  0
 19 20  2  0
 20 21  1  0
 20 26  1  0
 21 22  2  0
 22 23  1  0
 22 24  1  0
 24 18  1  0
 24 25  2  0
 25 15  1  0
 26 27  2  0
 27 28  1  0
 28 29  1  0
 28 30  2  0
 29 36  1  0
 30 31  1  0
 31 32  2  0
 32 26  1  0
 32 33  1  0
 34 35  2  0
 35 10  1  0
M  END
> <CMPD_CHEMBLID>
CHEMBL399246

> <STANDARD_TYPE>
Ki

> <RELATION>
=

> <STANDARD_VALUE>
0.5

> <STANDARD_UNITS>
nM

> <Molecular_Weight>
488.9687

$$$$

  SciTegic11272012012D

 24 27  0  0  0  0            999 V2000
    2.1408   -2.7239    0.0000 F   0  0
    2.1419   -2.0639    0.0000 C   0  0
    2.8570   -1.6525    0.0000 C   0  0
    2.8583   -0.8275    0.0000 N   0  0
    2.1445   -0.4139    0.0000 C   0  0
    1.4293   -0.8252    0.0000 C   0  0
    1.4281   -1.6502    0.0000 C   0  0
    0.7145   -0.4125    0.0000 C   0  0
    0.7145    0.4125    0.0000 C   0  0
    0.0000    0.8250    0.0000 C   0  0
   -0.7145    0.4125    0.0000 C   0  0
   -1.4290    0.8250    0.0000 C   0  0
   -2.1434    0.4125    0.0000 C   0  0
   -2.8592    0.8237    0.0000 N   0  0
   -3.5735    0.4100    0.0000 C   0  0
   -3.5723   -0.2500    0.0000 O   0  0
   -4.2892    0.8213    0.0000 C   0  0
   -5.0706    0.7961    0.0000 C   0  0
   -4.6581    1.5106    0.0000 C   0  0
   -2.1434   -0.4125    0.0000 N   0  0
   -1.4290   -0.8250    0.0000 C   0  0
   -0.7145   -0.4125    0.0000 C   0  0
    0.0000   -0.8250    0.0000 C   0  0
   -2.8601    1.3738    0.0000 H   0  0
  1  2  1  0
  2  3  2  0
  3  4  1  0
  4  5  2  0
  5  6  1  0
  6  7  2  0
  6  8  1  0
  7  2  1  0
  8  9  2  0
  9 10  1  0
 10 11  2  0
 11 12  1  0
 12 13  2  0
 13 14  1  0
 13 20  1  0
 14 15  1  0
 14 24  1  0
 15 16  2  0
 15 17  1  0
 17 18  1  0
 18 19  1  0
 19 17  1  0
 20 21  2  0
 21 22  1  0
 22 11  1  0
 22 23  2  0
 23  8  1  0
M  END
> <CMPD_CHEMBLID>
CHEMBL3685085

> <STANDARD_TYPE>
Ki

> <RELATION>
=

> <STANDARD_VALUE>
0.5

> <STANDARD_UNITS>
nM

> <Molecular_Weight>
307.32166

$$$$

  SciTegic11272012012D

 23 26  0  0  0  0            999 V2000
    0.8551   -1.9812    0.0000 O   0  0
    1.4273   -1.6521    0.0000 C   0  0
    1.4285   -0.8267    0.0000 N   0  0
    0.7144   -0.4125    0.0000 C   0  0
    0.7144    0.4125    0.0000 C   0  0
    0.0000    0.8250    0.0000 C   0  0
    0.0000    1.6500    0.0000 C   0  0
   -0.7145    2.0625    0.0000 C   0  0
   -1.4290    1.6500    0.0000 C   0  0
   -1.4290    0.8250    0.0000 C   0  0
   -0.7144    0.4125    0.0000 C   0  0
   -0.7144   -0.4125    0.0000 C   0  0
    0.0000   -0.8250    0.0000 N   0  0
   -2.1438    2.0627    0.0000 C   0  0
   -2.2209    2.8770    0.0000 C   0  0
   -3.0282    3.0473    0.0000 C   0  0
   -3.4395    2.3322    0.0000 N   0  0
   -2.8865    1.7200    0.0000 N   0  0
    2.1413   -2.0663    0.0000 C   0  0
    2.5103   -2.7557    0.0000 C   0  0
    2.9228   -2.0412    0.0000 C   0  0
   -3.9864    2.2738    0.0000 H   0  0
    1.9053   -0.5525    0.0000 H   0  0
  1  2  2  0
  2  3  1  0
  2 19  1  0
  3  4  1  0
  3 23  1  0
  4  5  2  0
  5  6  1  0
  6  7  2  0
  7  8  1  0
  8  9  2  0
  9 10  1  0
  9 14  1  0
 10 11  2  0
 11  6  1  0
 11 12  1  0
 12 13  2  0
 13  4  1  0
 14 15  1  0
 15 16  2  0
 16 17  1  0
 17 18  1  0
 17 22  1  0
 18 14  2  0
 19 20  1  0
 20 21  1  0
 21 19  1  0
M  END
> <CMPD_CHEMBLID>
CHEMBL3685062

> <STANDARD_TYPE>
Ki

> <RELATION>
=

> <STANDARD_VALUE>
0.5

> <STANDARD_UNITS>
nM

> <Molecular_Weight>
278.30856

$$$$

  SciTegic11272012012D

 33 37  0  0  0  0            999 V2000
    2.1456    0.2461    0.0000 C   0  0
    2.1446   -0.4139    0.0000 C   0  0
    2.8584   -0.8275    0.0000 C   0  0
    2.8570   -1.6525    0.0000 C   0  0
    2.1419   -2.0639    0.0000 C   0  0
    1.4281   -1.6503    0.0000 C   0  0
    1.4293   -0.8252    0.0000 C   0  0
    0.7145   -0.4125    0.0000 C   0  0
    0.7145    0.4125    0.0000 C   0  0
    0.0000    0.8250    0.0000 C   0  0
   -0.7145    0.4125    0.0000 C   0  0
   -1.4290    0.8250    0.0000 C   0  0
   -2.1435    0.4125    0.0000 C   0  0
   -2.8592    0.8238    0.0000 N   0  0
   -3.5735    0.4100    0.0000 C   0  0
   -3.5723   -0.2500    0.0000 O   0  0
   -4.2892    0.8213    0.0000 C   0  0
   -5.0707    0.7961    0.0000 C   0  0
   -4.6582    1.5106    0.0000 C   0  0
   -2.1435   -0.4125    0.0000 N   0  0
   -1.4290   -0.8250    0.0000 C   0  0
   -0.7145   -0.4125    0.0000 C   0  0
    0.0000   -0.8250    0.0000 C   0  0
    2.1389   -2.8894    0.0000 C   0  0
    2.7094   -3.2213    0.0000 O   0  0
    1.4228   -3.3000    0.0000 N   0  0
    1.4198   -4.1254    0.0000 C   0  0
    0.7516   -4.5973    0.0000 C   0  0
    1.0053   -5.3823    0.0000 C   0  0
    1.8303   -5.3836    0.0000 C   0  0
    2.0865   -4.5994    0.0000 C   0  0
    0.9474   -3.0234    0.0000 H   0  0
   -2.8602    1.3738    0.0000 H   0  0
  1  2  1  0
  2  3  2  0
  3  4  1  0
  4  5  2  0
  5  6  1  0
  5 24  1  0
  6  7  2  0
  7  2  1  0
  7  8  1  0
  8  9  2  0
  9 10  1  0
 10 11  2  0
 11 12  1  0
 12 13  2  0
 13 14  1  0
 13 20  1  0
 14 15  1  0
 14 33  1  0
 15 16  2  0
 15 17  1  0
 17 18  1  0
 18 19  1  0
 19 17  1  0
 20 21  2  0
 21 22  1  0
 22 11  1  0
 22 23  2  0
 23  8  1  0
 24 25  2  0
 24 26  1  0
 26 27  1  0
 26 32  1  0
 27 28  1  0
 28 29  1  0
 29 30  1  0
 30 31  1  0
 31 27  1  0
M  END
> <CMPD_CHEMBLID>
CHEMBL3689612

> <STANDARD_TYPE>
Ki

> <RELATION>
=

> <STANDARD_VALUE>
0.5

> <STANDARD_UNITS>
nM

> <Molecular_Weight>
413.51148

$$$$

  SciTegic11272012012D

 42 47  0  0  0  0            999 V2000
    4.1350   -8.1650    0.0000 C   0  0
    3.5628   -7.8361    0.0000 N   0  0
    2.8491   -8.2499    0.0000 C   0  0
    2.1338   -7.8387    0.0000 C   0  0
    2.1323   -7.0137    0.0000 N   0  0
    1.4175   -6.6008    0.0000 C   0  0
    1.4171   -5.7754    0.0000 C   0  0
    0.7033   -5.3617    0.0000 C   0  0
    0.7046   -4.5367    0.0000 C   0  0
    1.4198   -4.1253    0.0000 C   0  0
    2.1336   -4.5390    0.0000 C   0  0
    2.1322   -5.3640    0.0000 C   0  0
    1.4227   -3.2999    0.0000 C   0  0
    0.8523   -2.9680    0.0000 O   0  0
    2.1388   -2.8893    0.0000 N   0  0
    2.1419   -2.0639    0.0000 C   0  0
    2.8570   -1.6525    0.0000 C   0  0
    2.8583   -0.8275    0.0000 C   0  0
    2.1445   -0.4139    0.0000 C   0  0
    2.1455    0.2461    0.0000 F   0  0
    1.4293   -0.8252    0.0000 C   0  0
    1.4281   -1.6502    0.0000 C   0  0
    0.7144   -0.4125    0.0000 C   0  0
    0.7144    0.4125    0.0000 C   0  0
    0.0000    0.8250    0.0000 C   0  0
   -0.7144    0.4125    0.0000 C   0  0
   -1.4290    0.8250    0.0000 C   0  0
   -2.1434    0.4125    0.0000 C   0  0
   -2.8591    0.8237    0.0000 N   0  0
   -3.5734    0.4100    0.0000 C   0  0
   -3.5722   -0.2500    0.0000 O   0  0
   -4.2891    0.8213    0.0000 C   0  0
   -5.0706    0.7961    0.0000 C   0  0
   -4.6581    1.5106    0.0000 C   0  0
   -2.1434   -0.4125    0.0000 N   0  0
   -1.4290   -0.8250    0.0000 C   0  0
   -0.7144   -0.4125    0.0000 C   0  0
    0.0000   -0.8250    0.0000 C   0  0
    2.8460   -6.5999    0.0000 C   0  0
    3.5612   -7.0111    0.0000 C   0  0
   -2.8601    1.3737    0.0000 H   0  0
    2.6143   -3.1659    0.0000 H   0  0
  1  2  1  0
  2  3  1  0
  3  4  1  0
  4  5  1  0
  5  6  1  0
  5 39  1  0
  6  7  1  0
  7  8  2  0
  8  9  1  0
  9 10  2  0
 10 11  1  0
 10 13  1  0
 11 12  2  0
 12  7  1  0
 13 14  2  0
 13 15  1  0
 15 16  1  0
 15 42  1  0
 16 17  2  0
 17 18  1  0
 18 19  2  0
 19 20  1  0
 19 21  1  0
 21 22  2  0
 21 23  1  0
 22 16  1  0
 23 24  2  0
 24 25  1  0
 25 26  2  0
 26 27  1  0
 27 28  2  0
 28 29  1  0
 28 35  1  0
 29 30  1  0
 29 41  1  0
 30 31  2  0
 30 32  1  0
 32 33  1  0
 33 34  1  0
 34 32  1  0
 35 36  2  0
 36 37  1  0
 37 26  1  0
 37 38  2  0
 38 23  1  0
 39 40  1  0
 40  2  1  0
M  END
> <CMPD_CHEMBLID>
CHEMBL3689538

> <STANDARD_TYPE>
Ki

> <RELATION>
=

> <STANDARD_VALUE>
0.5

> <STANDARD_UNITS>
nM

> <Molecular_Weight>
537.62718

$$$$

  SciTegic11272012012D

 37 41  0  0  0  0            999 V2000
    2.1455    0.2461    0.0000 C   0  0
    2.1445   -0.4139    0.0000 C   0  0
    2.8583   -0.8275    0.0000 C   0  0
    2.8570   -1.6525    0.0000 C   0  0
    2.1419   -2.0639    0.0000 C   0  0
    2.1388   -2.8893    0.0000 N   0  0
    1.4227   -3.2999    0.0000 C   0  0
    0.8523   -2.9680    0.0000 O   0  0
    1.4198   -4.1253    0.0000 N   0  0
    0.7046   -4.5367    0.0000 C   0  0
    0.7033   -5.3617    0.0000 C   0  0
    1.4171   -5.7754    0.0000 O   0  0
    2.1322   -5.3640    0.0000 C   0  0
    2.8473   -5.7764    0.0000 C   0  0
    3.5622   -5.3639    0.0000 O   0  0
    2.1336   -4.5390    0.0000 C   0  0
    1.4281   -1.6502    0.0000 C   0  0
    1.4293   -0.8252    0.0000 C   0  0
    0.7144   -0.4125    0.0000 C   0  0
    0.7144    0.4125    0.0000 C   0  0
    0.0000    0.8250    0.0000 C   0  0
   -0.7144    0.4125    0.0000 C   0  0
   -1.4290    0.8250    0.0000 C   0  0
   -2.1434    0.4125    0.0000 C   0  0
   -2.8591    0.8237    0.0000 N   0  0
   -3.5734    0.4100    0.0000 C   0  0
   -3.5722   -0.2500    0.0000 O   0  0
   -4.2891    0.8213    0.0000 C   0  0
   -5.0706    0.7961    0.0000 C   0  0
   -4.6581    1.5106    0.0000 C   0  0
   -2.1434   -0.4125    0.0000 N   0  0
   -1.4290   -0.8250    0.0000 C   0  0
   -0.7144   -0.4125    0.0000 C   0  0
    0.0000   -0.8250    0.0000 C   0  0
   -2.8601    1.3737    0.0000 H   0  0
    4.0386   -5.6387    0.0000 H   0  0
    2.6143   -3.1659    0.0000 H   0  0
  1  2  1  0
  2  3  2  0
  3  4  1  0
  4  5  2  0
  5  6  1  0
  5 17  1  0
  6  7  1  0
  6 37  1  0
  7  8  2  0
  7  9  1  0
  9 10  1  0
 10 11  1  0
 11 12  1  0
 12 13  1  0
 13 14  1  0
 13 16  1  0
 14 15  1  0
 15 36  1  0
 16  9  1  0
 17 18  2  0
 18  2  1  0
 18 19  1  0
 19 20  2  0
 20 21  1  0
 21 22  2  0
 22 23  1  0
 23 24  2  0
 24 25  1  0
 24 31  1  0
 25 26  1  0
 25 35  1  0
 26 27  2  0
 26 28  1  0
 28 29  1  0
 29 30  1  0
 30 28  1  0
 31 32  2  0
 32 33  1  0
 33 22  1  0
 33 34  2  0
 34 19  1  0
M  END
> <CMPD_CHEMBLID>
CHEMBL3689549

> <STANDARD_TYPE>
Ki

> <RELATION>
=

> <STANDARD_VALUE>
0.5

> <STANDARD_UNITS>
nM

> <Molecular_Weight>
460.52492

$$$$

  SciTegic11272012012D

 43 47  0  0  0  0            999 V2000
    3.4275   -4.4592    0.0000 C   0  0
    2.8558   -4.1293    0.0000 C   0  0
    2.8561   -4.7893    0.0000 C   0  0
    2.1412   -4.5425    0.0000 N   0  0
    2.8558   -3.3038    0.0000 C   0  0
    2.1414   -2.8913    0.0000 C   0  0
    2.1413   -2.0663    0.0000 C   0  0
    2.8559   -1.6539    0.0000 C   0  0
    3.5703   -2.0664    0.0000 C   0  0
    3.5703   -2.8914    0.0000 C   0  0
    4.2852   -1.6537    0.0000 C   0  0
    4.2857   -0.9937    0.0000 F   0  0
    4.8567   -1.9839    0.0000 F   0  0
    4.8569   -1.3240    0.0000 F   0  0
    1.4273   -1.6521    0.0000 C   0  0
    0.8551   -1.9812    0.0000 O   0  0
    1.4285   -0.8267    0.0000 N   0  0
    0.7144   -0.4125    0.0000 C   0  0
    0.7144    0.4125    0.0000 C   0  0
    0.0000    0.8250    0.0000 C   0  0
   -0.7144    0.4125    0.0000 C   0  0
   -1.4290    0.8250    0.0000 C   0  0
   -2.1434    0.4125    0.0000 C   0  0
   -2.1434   -0.4125    0.0000 C   0  0
   -2.8574   -0.8267    0.0000 O   0  0
   -2.8563   -1.6521    0.0000 C   0  0
   -2.1403   -2.0622    0.0000 C   0  0
   -2.1375   -2.8872    0.0000 C   0  0
   -2.8505   -3.3022    0.0000 N   0  0
   -3.5664   -2.8922    0.0000 C   0  0
   -4.2794   -3.3071    0.0000 N   0  0
   -4.9954   -2.8971    0.0000 C   0  0
   -5.5658   -3.2291    0.0000 O   0  0
   -4.9982   -2.0721    0.0000 C   0  0
   -4.2852   -1.6571    0.0000 C   0  0
   -3.5693   -2.0672    0.0000 C   0  0
   -1.4290   -0.8250    0.0000 C   0  0
   -0.7144   -0.4125    0.0000 C   0  0
    0.0000   -0.8250    0.0000 C   0  0
   -4.2776   -3.8571    0.0000 H   0  0
    1.9053   -0.5525    0.0000 H   0  0
    2.1412   -5.0925    0.0000 H   0  0
    1.6648   -4.2676    0.0000 H   0  0
  1  2  1  0
  2  3  1  0
  2  4  1  0
  2  5  1  0
  4 42  1  0
  4 43  1  0
  5  6  2  0
  6  7  1  0
  7  8  2  0
  7 15  1  0
  8  9  1  0
  9 10  2  0
  9 11  1  0
 10  5  1  0
 11 12  1  0
 11 13  1  0
 11 14  1  0
 15 16  2  0
 15 17  1  0
 17 18  1  0
 17 41  1  0
 18 19  1  0
 19 20  1  0
 20 21  1  0
 21 22  2  0
 22 23  1  0
 23 24  2  0
 24 25  1  0
 24 37  1  0
 25 26  1  0
 26 27  2  0
 27 28  1  0
 28 29  2  0
 29 30  1  0
 30 31  1  0
 31 32  1  0
 31 40  1  0
 32 33  2  0
 32 34  1  0
 34 35  1  0
 35 36  1  0
 36 26  1  0
 36 30  2  0
 37 38  2  0
 38 21  1  0
 38 39  1  0
 39 18  1  0
M  END
> <CMPD_CHEMBLID>
CHEMBL1688861

> <STANDARD_TYPE>
IC50

> <RELATION>
<

> <STANDARD_VALUE>
0.5

> <STANDARD_UNITS>
nM

> <Molecular_Weight>
538.56077

$$$$

  SciTegic11272012012D

 26 29  0  0  0  0            999 V2000
    2.1456    0.2461    0.0000 C   0  0
    2.1445   -0.4139    0.0000 C   0  0
    2.8583   -0.8275    0.0000 C   0  0
    2.8570   -1.6525    0.0000 C   0  0
    3.4281   -1.9834    0.0000 F   0  0
    2.1419   -2.0639    0.0000 C   0  0
    2.1408   -2.7239    0.0000 F   0  0
    1.4281   -1.6502    0.0000 C   0  0
    1.4293   -0.8252    0.0000 C   0  0
    0.7145   -0.4125    0.0000 C   0  0
    0.7145    0.4125    0.0000 C   0  0
    0.0000    0.8250    0.0000 C   0  0
   -0.7145    0.4125    0.0000 C   0  0
   -1.4290    0.8250    0.0000 C   0  0
   -2.1434    0.4125    0.0000 C   0  0
   -2.8592    0.8237    0.0000 N   0  0
   -3.5735    0.4100    0.0000 C   0  0
   -3.5723   -0.2500    0.0000 O   0  0
   -4.2892    0.8213    0.0000 C   0  0
   -5.0706    0.7961    0.0000 C   0  0
   -4.6581    1.5106    0.0000 C   0  0
   -2.1434   -0.4125    0.0000 N   0  0
   -1.4290   -0.8250    0.0000 C   0  0
   -0.7145   -0.4125    0.0000 C   0  0
    0.0000   -0.8250    0.0000 C   0  0
   -2.8601    1.3738    0.0000 H   0  0
  1  2  1  0
  2  3  2  0
  3  4  1  0
  4  5  1  0
  4  6  2  0
  6  7  1  0
  6  8  1  0
  8  9  2  0
  9  2  1  0
  9 10  1  0
 10 11  2  0
 11 12  1  0
 12 13  2  0
 13 14  1  0
 14 15  2  0
 15 16  1  0
 15 22  1  0
 16 17  1  0
 16 26  1  0
 17 18  2  0
 17 19  1  0
 19 20  1  0
 20 21  1  0
 21 19  1  0
 22 23  2  0
 23 24  1  0
 24 13  1  0
 24 25  2  0
 25 10  1  0
M  END
> <CMPD_CHEMBLID>
CHEMBL3685024

> <STANDARD_TYPE>
Ki

> <RELATION>
=

> <STANDARD_VALUE>
0.5

> <STANDARD_UNITS>
nM

> <Molecular_Weight>
338.35065

$$$$

  SciTegic11272012012D

 38 42  0  0  0  0            999 V2000
   -1.6849   -2.8448    0.0000 C   0  0
   -1.4810   -3.4726    0.0000 C   0  0
   -2.0332   -4.0855    0.0000 C   0  0
   -1.7784   -4.8702    0.0000 C   0  0
   -0.9714   -5.0419    0.0000 C   0  0
   -0.4193   -4.4288    0.0000 C   0  0
    0.2263   -4.5662    0.0000 C   0  0
   -0.6741   -3.6442    0.0000 C   0  0
   -0.1229   -3.0297    0.0000 C   0  0
   -0.3789   -2.2450    0.0000 C   0  0
    0.1713   -1.6316    0.0000 N   0  0
    0.9918   -1.7178    0.0000 C   0  0
    1.3273   -0.9641    0.0000 N   0  0
    0.7144   -0.4125    0.0000 C   0  0
    0.7144    0.4125    0.0000 C   0  0
    1.4285    0.8267    0.0000 N   0  0
    1.4273    1.6521    0.0000 C   0  0
    2.1403    2.0672    0.0000 C   0  0
    2.1375    2.8922    0.0000 C   0  0
    1.4216    3.3022    0.0000 C   0  0
    0.7086    2.8872    0.0000 C   0  0
    0.7114    2.0622    0.0000 C   0  0
    1.4187    4.1276    0.0000 P   0  0
    1.9889    4.4600    0.0000 O   0  0
    0.8459    4.4555    0.0000 C   0  0
    1.4161    4.7876    0.0000 C   0  0
    0.0000    0.8250    0.0000 N   0  0
   -0.7144    0.4125    0.0000 C   0  0
   -1.4302    0.8237    0.0000 O   0  0
   -2.1444    0.4100    0.0000 C   0  0
   -2.8604    0.8200    0.0000 C   0  0
   -3.5734    0.4050    0.0000 C   0  0
   -3.5706   -0.4200    0.0000 C   0  0
   -2.8546   -0.8300    0.0000 N   0  0
   -2.1416   -0.4150    0.0000 C   0  0
   -0.7144   -0.4125    0.0000 N   0  0
    0.0000   -0.8250    0.0000 C   0  0
    1.9052    0.5525    0.0000 H   0  0
  1  2  1  0
  2  3  2  0
  3  4  1  0
  4  5  2  0
  5  6  1  0
  6  7  1  0
  6  8  2  0
  8  2  1  0
  8  9  1  0
  9 10  2  0
 10 11  1  0
 11 12  1  0
 12 13  2  0
 13 14  1  0
 14 15  2  0
 15 16  1  0
 15 27  1  0
 16 17  1  0
 16 38  1  0
 17 18  2  0
 18 19  1  0
 19 20  2  0
 20 21  1  0
 20 23  1  0
 21 22  2  0
 22 17  1  0
 23 24  2  0
 23 25  1  0
 23 26  1  0
 27 28  2  0
 28 29  1  0
 28 36  1  0
 29 30  1  0
 30 31  2  0
 31 32  1  0
 32 33  2  0
 33 34  1  0
 34 35  2  0
 35 30  1  0
 36 37  2  0
 37 11  1  0
 37 14  1  0
M  END
> <CMPD_CHEMBLID>
CHEMBL518166

> <STANDARD_TYPE>
IC50

> <RELATION>
=

> <STANDARD_VALUE>
0.5

> <STANDARD_UNITS>
nM

> <Molecular_Weight>
510.52674

$$$$

  SciTegic11272012012D

 36 39  0  0  0  0            999 V2000
    2.7167   -0.7388    0.0000 C   0  0
    2.1445   -0.4100    0.0000 N   0  0
    1.4302   -0.8237    0.0000 C   0  0
    1.4313   -1.4837    0.0000 O   0  0
    0.7145   -0.4125    0.0000 C   0  0
    0.7145    0.4125    0.0000 C   0  0
    0.0000    0.8250    0.0000 N   0  0
   -0.7145    0.4125    0.0000 C   0  0
   -1.4285    0.8267    0.0000 N   0  0
   -0.7145   -0.4125    0.0000 C   0  0
   -1.3273   -0.9642    0.0000 C   0  0
   -0.9918   -1.7178    0.0000 C   0  0
   -0.1713   -1.6316    0.0000 S   0  0
    0.0000   -0.8250    0.0000 C   0  0
   -2.1347   -0.7924    0.0000 C   0  0
   -2.4465   -0.0316    0.0000 C   0  0
   -3.2640    0.0788    0.0000 C   0  0
   -3.7684   -0.5741    0.0000 C   0  0
   -4.5867   -0.4654    0.0000 N   0  0
   -5.0904   -1.1194    0.0000 C   0  0
   -4.8387   -1.7295    0.0000 O   0  0
   -5.9086   -1.0107    0.0000 N   0  0
   -6.4123   -1.6646    0.0000 C   0  0
   -7.2303   -1.5572    0.0000 C   0  0
   -7.7324   -2.2118    0.0000 C   0  0
   -7.4165   -2.9739    0.0000 C   0  0
   -6.5985   -3.0814    0.0000 C   0  0
   -6.3459   -3.6912    0.0000 Cl  0  0
   -6.0964   -2.4268    0.0000 C   0  0
   -3.4552   -1.3373    0.0000 C   0  0
   -2.6375   -1.4477    0.0000 C   0  0
   -6.1183   -0.5022    0.0000 H   0  0
   -4.7964    0.0430    0.0000 H   0  0
   -1.4277    1.3767    0.0000 H   0  0
   -1.9053    0.5525    0.0000 H   0  0
    2.1435    0.1400    0.0000 H   0  0
  1  2  1  0
  2  3  1  0
  2 36  1  0
  3  4  2  0
  3  5  1  0
  5  6  2  0
  6  7  1  0
  7  8  2  0
  8  9  1  0
  8 10  1  0
  9 34  1  0
  9 35  1  0
 10 11  1  0
 11 12  2  0
 11 15  1  0
 12 13  1  0
 13 14  1  0
 14  5  1  0
 14 10  2  0
 15 16  2  0
 16 17  1  0
 17 18  2  0
 18 19  1  0
 18 30  1  0
 19 20  1  0
 19 33  1  0
 20 21  2  0
 20 22  1  0
 22 23  1  0
 22 32  1  0
 23 24  2  0
 24 25  1  0
 25 26  2  0
 26 27  1  0
 27 28  1  0
 27 29  2  0
 29 23  1  0
 30 31  2  0
 31 15  1  0
M  END
> <CMPD_CHEMBLID>
CHEMBL1982476

> <STANDARD_TYPE>
Ki

> <RELATION>
=

> <STANDARD_VALUE>
0.501

> <STANDARD_UNITS>
nM

> <Molecular_Weight>
451.92862

$$$$

  SciTegic11272012012D

 36 39  0  0  0  0            999 V2000
   -0.5989   -6.9241    0.0000 C   0  0
   -0.0258   -6.5969    0.0000 C   0  0
   -0.0212   -5.7715    0.0000 N   0  0
   -0.7331   -5.3536    0.0000 C   0  0
   -0.7287   -4.6936    0.0000 C   0  0
    0.6956   -5.3623    0.0000 C   0  0
    0.7002   -4.5369    0.0000 C   0  0
    1.4171   -4.1276    0.0000 O   0  0
    1.4216   -3.3022    0.0000 C   0  0
    2.1375   -2.8922    0.0000 C   0  0
    2.1403   -2.0672    0.0000 C   0  0
    1.4273   -1.6521    0.0000 C   0  0
    1.4285   -0.8267    0.0000 N   0  0
    0.7144   -0.4125    0.0000 C   0  0
    0.7144    0.4125    0.0000 N   0  0
    0.0000    0.8250    0.0000 C   0  0
   -0.7144    0.4125    0.0000 C   0  0
   -1.4289    0.8250    0.0000 C   0  0
   -2.1434    0.4125    0.0000 C   0  0
   -2.1434   -0.4125    0.0000 C   0  0
   -2.7149   -0.7425    0.0000 O   0  0
   -1.4289   -0.8250    0.0000 N   0  0
   -1.4289   -1.4850    0.0000 C   0  0
   -0.7144   -0.4125    0.0000 C   0  0
    0.0000   -0.8250    0.0000 N   0  0
   -2.8582    0.8252    0.0000 C   0  0
   -2.8596    1.6502    0.0000 C   0  0
   -2.2886    1.9811    0.0000 Cl  0  0
   -3.5747    2.0616    0.0000 C   0  0
   -4.2885    1.6480    0.0000 C   0  0
   -4.2872    0.8230    0.0000 C   0  0
   -3.5721    0.4116    0.0000 C   0  0
   -3.5711   -0.2484    0.0000 Cl  0  0
    0.7114   -2.0622    0.0000 C   0  0
    0.7086   -2.8872    0.0000 C   0  0
    1.9053   -0.5525    0.0000 H   0  0
  1  2  1  0
  2  3  1  0
  3  4  1  0
  3  6  1  0
  4  5  1  0
  6  7  1  0
  7  8  1  0
  8  9  1  0
  9 10  2  0
 10 11  1  0
 11 12  2  0
 12 13  1  0
 12 34  1  0
 13 14  1  0
 13 36  1  0
 14 15  2  0
 15 16  1  0
 16 17  2  0
 17 18  1  0
 18 19  2  0
 19 20  1  0
 19 26  1  0
 20 21  2  0
 20 22  1  0
 22 23  1  0
 22 24  1  0
 24 17  1  0
 24 25  2  0
 25 14  1  0
 26 27  2  0
 27 28  1  0
 27 29  1  0
 29 30  2  0
 30 31  1  0
 31 32  2  0
 32 26  1  0
 32 33  1  0
 34 35  2  0
 35  9  1  0
M  END
> <CMPD_CHEMBLID>
CHEMBL49120

> <STANDARD_TYPE>
Ki

> <RELATION>
=

> <STANDARD_VALUE>
0.501

> <STANDARD_UNITS>
nM

> <Molecular_Weight>
512.43088

$$$$

  SciTegic11272012012D

 42 46  0  0  0  0            999 V2000
    7.8486    4.3779    0.0000 C   0  0
    7.8509    3.7179    0.0000 N   0  0
    8.5668    3.3079    0.0000 C   0  0
    8.5697    2.4829    0.0000 C   0  0
    7.8566    2.0679    0.0000 N   0  0
    7.8578    1.2424    0.0000 C   0  0
    7.1438    0.8282    0.0000 C   0  0
    6.4293    1.2407    0.0000 C   0  0
    5.7149    0.8282    0.0000 C   0  0
    5.7148    0.0032    0.0000 C   0  0
    5.0008   -0.4110    0.0000 N   0  0
    5.0020   -1.2365    0.0000 C   0  0
    5.5742   -1.5655    0.0000 O   0  0
    4.2880   -1.6507    0.0000 C   0  0
    4.2880   -2.4757    0.0000 C   0  0
    3.5735   -2.8882    0.0000 C   0  0
    2.8591   -2.4757    0.0000 C   0  0
    2.2875   -2.8057    0.0000 C   0  0
    2.8591   -1.6507    0.0000 C   0  0
    3.5735   -1.2382    0.0000 C   0  0
    2.1442   -1.2379    0.0000 C   0  0
    1.4293   -0.8252    0.0000 C   0  0
    0.7144   -0.4125    0.0000 C   0  0
    0.7144    0.4125    0.0000 C   0  0
    0.0000    0.8250    0.0000 N   0  0
   -0.7144    0.4125    0.0000 C   0  0
   -1.4986    0.6674    0.0000 N   0  0
   -1.9836    0.0000    0.0000 N   0  0
   -1.4986   -0.6674    0.0000 C   0  0
   -1.7025   -1.2951    0.0000 C   0  0
   -0.7144   -0.4125    0.0000 C   0  0
    0.0000   -0.8250    0.0000 C   0  0
    6.4294   -0.4093    0.0000 C   0  0
    7.1438    0.0032    0.0000 C   0  0
    7.8587   -0.4095    0.0000 C   0  0
    7.8592   -1.0695    0.0000 F   0  0
    8.4302   -0.0793    0.0000 F   0  0
    8.4305   -0.7392    0.0000 F   0  0
    7.1407    2.4780    0.0000 C   0  0
    7.1378    3.3030    0.0000 C   0  0
   -1.6685    1.1905    0.0000 H   0  0
    4.5241   -0.1368    0.0000 H   0  0
  1  2  1  0
  2  3  1  0
  3  4  1  0
  4  5  1  0
  5  6  1  0
  5 39  1  0
  6  7  1  0
  7  8  2  0
  8  9  1  0
  9 10  2  0
 10 11  1  0
 10 33  1  0
 11 12  1  0
 11 42  1  0
 12 13  2  0
 12 14  1  0
 14 15  2  0
 15 16  1  0
 16 17  2  0
 17 18  1  0
 17 19  1  0
 19 20  2  0
 19 21  1  0
 20 14  1  0
 21 22  3  0
 22 23  1  0
 23 24  2  0
 24 25  1  0
 25 26  2  0
 26 27  1  0
 27 28  1  0
 27 41  1  0
 28 29  2  0
 29 30  1  0
 29 31  1  0
 31 26  1  0
 31 32  2  0
 32 23  1  0
 33 34  2  0
 34  7  1  0
 34 35  1  0
 35 36  1  0
 35 37  1  0
 35 38  1  0
 39 40  1  0
 40  2  1  0
M  END
> <CMPD_CHEMBLID>
CHEMBL2316869

> <STANDARD_TYPE>
IC50

> <RELATION>
=

> <STANDARD_VALUE>
0.53

> <STANDARD_UNITS>
nM

> <Molecular_Weight>
546.58607

$$$$

  SciTegic11272012012D

 24 27  0  0  0  0            999 V2000
    2.1456    0.2461    0.0000 F   0  0
    2.1445   -0.4139    0.0000 C   0  0
    2.8583   -0.8275    0.0000 C   0  0
    2.8570   -1.6525    0.0000 C   0  0
    2.1419   -2.0639    0.0000 C   0  0
    1.4281   -1.6502    0.0000 C   0  0
    1.4293   -0.8252    0.0000 C   0  0
    0.7145   -0.4125    0.0000 C   0  0
    0.7145    0.4125    0.0000 C   0  0
    0.0000    0.8250    0.0000 C   0  0
   -0.7145    0.4125    0.0000 C   0  0
   -1.4290    0.8250    0.0000 C   0  0
   -2.1434    0.4125    0.0000 C   0  0
   -2.8592    0.8237    0.0000 N   0  0
   -3.5735    0.4100    0.0000 C   0  0
   -3.5723   -0.2500    0.0000 O   0  0
   -4.2892    0.8213    0.0000 C   0  0
   -5.0706    0.7961    0.0000 C   0  0
   -4.6581    1.5106    0.0000 C   0  0
   -2.1434   -0.4125    0.0000 N   0  0
   -1.4290   -0.8250    0.0000 C   0  0
   -0.7145   -0.4125    0.0000 C   0  0
    0.0000   -0.8250    0.0000 C   0  0
   -2.8601    1.3738    0.0000 H   0  0
  1  2  1  0
  2  3  2  0
  3  4  1  0
  4  5  2  0
  5  6  1  0
  6  7  2  0
  7  2  1  0
  7  8  1  0
  8  9  2  0
  9 10  1  0
 10 11  2  0
 11 12  1  0
 12 13  2  0
 13 14  1  0
 13 20  1  0
 14 15  1  0
 14 24  1  0
 15 16  2  0
 15 17  1  0
 17 18  1  0
 18 19  1  0
 19 17  1  0
 20 21  2  0
 21 22  1  0
 22 11  1  0
 22 23  2  0
 23  8  1  0
M  END
> <CMPD_CHEMBLID>
CHEMBL3689708

> <STANDARD_TYPE>
Ki

> <RELATION>
=

> <STANDARD_VALUE>
0.545

> <STANDARD_UNITS>
nM

> <Molecular_Weight>
306.3336

$$$$

  SciTegic11272012012D

 41 45  0  0  0  0            999 V2000
    7.8485    4.3779    0.0000 C   0  0
    7.8508    3.7179    0.0000 N   0  0
    8.5667    3.3079    0.0000 C   0  0
    8.5696    2.4829    0.0000 C   0  0
    7.8566    2.0679    0.0000 N   0  0
    7.8578    1.2424    0.0000 C   0  0
    7.1438    0.8282    0.0000 C   0  0
    6.4293    1.2407    0.0000 C   0  0
    5.7149    0.8282    0.0000 C   0  0
    5.7148    0.0032    0.0000 C   0  0
    5.0008   -0.4110    0.0000 N   0  0
    5.0020   -1.2364    0.0000 C   0  0
    5.5742   -1.5655    0.0000 O   0  0
    4.2880   -1.6507    0.0000 C   0  0
    4.2880   -2.4756    0.0000 C   0  0
    3.5735   -2.8881    0.0000 C   0  0
    2.8590   -2.4756    0.0000 C   0  0
    2.2875   -2.8056    0.0000 Cl  0  0
    2.8590   -1.6507    0.0000 C   0  0
    3.5735   -1.2382    0.0000 C   0  0
    2.1442   -1.2379    0.0000 C   0  0
    1.4293   -0.8252    0.0000 C   0  0
    0.7144   -0.4125    0.0000 C   0  0
    0.7144    0.4125    0.0000 C   0  0
    0.0000    0.8250    0.0000 N   0  0
   -0.7144    0.4125    0.0000 C   0  0
   -1.4986    0.6674    0.0000 N   0  0
   -1.9836    0.0000    0.0000 N   0  0
   -1.4986   -0.6674    0.0000 C   0  0
   -0.7144   -0.4125    0.0000 C   0  0
    0.0000   -0.8250    0.0000 C   0  0
    6.4294   -0.4093    0.0000 C   0  0
    7.1438    0.0032    0.0000 C   0  0
    7.8587   -0.4095    0.0000 C   0  0
    7.8591   -1.0695    0.0000 F   0  0
    8.4301   -0.0793    0.0000 F   0  0
    8.4304   -0.7392    0.0000 F   0  0
    7.1407    2.4780    0.0000 C   0  0
    7.1378    3.3030    0.0000 C   0  0
   -1.6685    1.1905    0.0000 H   0  0
    4.5241   -0.1368    0.0000 H   0  0
  1  2  1  0
  2  3  1  0
  3  4  1  0
  4  5  1  0
  5  6  1  0
  5 38  1  0
  6  7  1  0
  7  8  2  0
  8  9  1  0
  9 10  2  0
 10 11  1  0
 10 32  1  0
 11 12  1  0
 11 41  1  0
 12 13  2  0
 12 14  1  0
 14 15  2  0
 15 16  1  0
 16 17  2  0
 17 18  1  0
 17 19  1  0
 19 20  2  0
 19 21  1  0
 20 14  1  0
 21 22  3  0
 22 23  1  0
 23 24  2  0
 24 25  1  0
 25 26  2  0
 26 27  1  0
 27 28  1  0
 27 40  1  0
 28 29  2  0
 29 30  1  0
 30 26  1  0
 30 31  2  0
 31 23  1  0
 32 33  2  0
 33  7  1  0
 33 34  1  0
 34 35  1  0
 34 36  1  0
 34 37  1  0
 38 39  1  0
 39  2  1  0
M  END
> <CMPD_CHEMBLID>
CHEMBL2316586

> <STANDARD_TYPE>
IC50

> <RELATION>
=

> <STANDARD_VALUE>
0.57

> <STANDARD_UNITS>
nM

> <Molecular_Weight>
552.97797

$$$$

  SciTegic11272012012D

 35 39  0  0  0  0            999 V2000
    2.1456    0.2461    0.0000 C   0  0
    2.1445   -0.4139    0.0000 C   0  0
    2.8583   -0.8275    0.0000 C   0  0
    2.8570   -1.6525    0.0000 C   0  0
    2.1419   -2.0639    0.0000 C   0  0
    1.4281   -1.6502    0.0000 C   0  0
    1.4293   -0.8252    0.0000 C   0  0
    0.7145   -0.4125    0.0000 C   0  0
    0.7145    0.4125    0.0000 C   0  0
    0.0000    0.8250    0.0000 C   0  0
   -0.7145    0.4125    0.0000 C   0  0
   -1.4290    0.8250    0.0000 C   0  0
   -2.1434    0.4125    0.0000 C   0  0
   -2.8592    0.8237    0.0000 N   0  0
   -3.5735    0.4100    0.0000 C   0  0
   -3.5723   -0.2500    0.0000 O   0  0
   -4.2892    0.8213    0.0000 C   0  0
   -5.0706    0.7961    0.0000 C   0  0
   -4.6581    1.5106    0.0000 C   0  0
   -2.1434   -0.4125    0.0000 N   0  0
   -1.4290   -0.8250    0.0000 C   0  0
   -0.7145   -0.4125    0.0000 C   0  0
    0.0000   -0.8250    0.0000 C   0  0
    2.1389   -2.8894    0.0000 C   0  0
    2.7094   -3.2213    0.0000 O   0  0
    1.4228   -3.2999    0.0000 N   0  0
    1.4198   -4.1254    0.0000 C   0  0
    0.7033   -4.5359    0.0000 C   0  0
    0.7000   -5.3613    0.0000 O   0  0
    2.1730   -3.8888    0.0000 C   0  0
    2.3837   -4.6864    0.0000 C   0  0
    1.5861   -4.8972    0.0000 C   0  0
    0.2229   -5.6347    0.0000 H   0  0
    0.9474   -3.0233    0.0000 H   0  0
   -2.8601    1.3738    0.0000 H   0  0
  1  2  1  0
  2  3  2  0
  3  4  1  0
  4  5  2  0
  5  6  1  0
  5 24  1  0
  6  7  2  0
  7  2  1  0
  7  8  1  0
  8  9  2  0
  9 10  1  0
 10 11  2  0
 11 12  1  0
 12 13  2  0
 13 14  1  0
 13 20  1  0
 14 15  1  0
 14 35  1  0
 15 16  2  0
 15 17  1  0
 17 18  1  0
 18 19  1  0
 19 17  1  0
 20 21  2  0
 21 22  1  0
 22 11  1  0
 22 23  2  0
 23  8  1  0
 24 25  2  0
 24 26  1  0
 26 27  1  0
 26 34  1  0
 27 28  1  0
 27 30  1  0
 28 29  1  0
 29 33  1  0
 30 31  1  0
 31 32  1  0
 32 27  1  0
M  END
> <CMPD_CHEMBLID>
CHEMBL3689745

> <STANDARD_TYPE>
Ki

> <RELATION>
=

> <STANDARD_VALUE>
0.586

> <STANDARD_UNITS>
nM

> <Molecular_Weight>
429.51088

$$$$

  SciTegic11272012012D

 34 38  0  0  0  0            999 V2000
    2.1456    0.2461    0.0000 C   0  0
    2.1446   -0.4139    0.0000 C   0  0
    2.8584   -0.8275    0.0000 C   0  0
    2.8570   -1.6525    0.0000 C   0  0
    2.1419   -2.0639    0.0000 C   0  0
    1.4281   -1.6503    0.0000 C   0  0
    1.4293   -0.8252    0.0000 C   0  0
    0.7145   -0.4125    0.0000 C   0  0
    0.7145    0.4125    0.0000 C   0  0
    0.0000    0.8250    0.0000 C   0  0
   -0.7145    0.4125    0.0000 C   0  0
   -1.4290    0.8250    0.0000 C   0  0
   -2.1435    0.4125    0.0000 C   0  0
   -2.8592    0.8238    0.0000 N   0  0
   -3.5735    0.4100    0.0000 C   0  0
   -3.5723   -0.2500    0.0000 O   0  0
   -4.2892    0.8213    0.0000 C   0  0
   -5.0707    0.7961    0.0000 C   0  0
   -4.6582    1.5106    0.0000 C   0  0
   -2.1435   -0.4125    0.0000 N   0  0
   -1.4290   -0.8250    0.0000 C   0  0
   -0.7145   -0.4125    0.0000 C   0  0
    0.0000   -0.8250    0.0000 C   0  0
    2.1389   -2.8894    0.0000 C   0  0
    2.7094   -3.2213    0.0000 O   0  0
    1.4228   -3.3000    0.0000 N   0  0
    1.4198   -4.1254    0.0000 C   0  0
    0.7516   -4.5973    0.0000 C   0  0
    1.0053   -5.3823    0.0000 N   0  0
    1.8303   -5.3836    0.0000 N   0  0
    2.2174   -5.9182    0.0000 C   0  0
    2.0865   -4.5994    0.0000 C   0  0
    0.9474   -3.0234    0.0000 H   0  0
   -2.8602    1.3738    0.0000 H   0  0
  1  2  1  0
  2  3  2  0
  3  4  1  0
  4  5  2  0
  5  6  1  0
  5 24  1  0
  6  7  2  0
  7  2  1  0
  7  8  1  0
  8  9  2  0
  9 10  1  0
 10 11  2  0
 11 12  1  0
 12 13  2  0
 13 14  1  0
 13 20  1  0
 14 15  1  0
 14 34  1  0
 15 16  2  0
 15 17  1  0
 17 18  1  0
 18 19  1  0
 19 17  1  0
 20 21  2  0
 21 22  1  0
 22 11  1  0
 22 23  2  0
 23  8  1  0
 24 25  2  0
 24 26  1  0
 26 27  1  0
 26 33  1  0
 27 28  1  0
 28 29  2  0
 29 30  1  0
 30 31  1  0
 30 32  1  0
 32 27  2  0
M  END
> <CMPD_CHEMBLID>
CHEMBL3689616

> <STANDARD_TYPE>
Ki

> <RELATION>
=

> <STANDARD_VALUE>
0.6

> <STANDARD_UNITS>
nM

> <Molecular_Weight>
425.48242

$$$$

  SciTegic11272012012D

 26 29  0  0  0  0            999 V2000
    2.7201    0.7399    0.0000 C   0  0
    2.1476    0.4116    0.0000 O   0  0
    2.1445   -0.4139    0.0000 C   0  0
    2.8583   -0.8275    0.0000 C   0  0
    2.8570   -1.6525    0.0000 C   0  0
    2.1419   -2.0639    0.0000 C   0  0
    2.1408   -2.7239    0.0000 F   0  0
    1.4281   -1.6502    0.0000 C   0  0
    1.4293   -0.8252    0.0000 C   0  0
    0.7145   -0.4125    0.0000 C   0  0
    0.7145    0.4125    0.0000 C   0  0
    0.0000    0.8250    0.0000 C   0  0
   -0.7145    0.4125    0.0000 C   0  0
   -1.4290    0.8250    0.0000 C   0  0
   -2.1434    0.4125    0.0000 C   0  0
   -2.8592    0.8237    0.0000 N   0  0
   -3.5735    0.4100    0.0000 C   0  0
   -3.5723   -0.2500    0.0000 O   0  0
   -4.2892    0.8213    0.0000 C   0  0
   -5.0706    0.7961    0.0000 C   0  0
   -4.6581    1.5106    0.0000 C   0  0
   -2.1434   -0.4125    0.0000 N   0  0
   -1.4290   -0.8250    0.0000 C   0  0
   -0.7145   -0.4125    0.0000 C   0  0
    0.0000   -0.8250    0.0000 C   0  0
   -2.8601    1.3738    0.0000 H   0  0
  1  2  1  0
  2  3  1  0
  3  4  2  0
  4  5  1  0
  5  6  2  0
  6  7  1  0
  6  8  1  0
  8  9  2  0
  9  3  1  0
  9 10  1  0
 10 11  2  0
 11 12  1  0
 12 13  2  0
 13 14  1  0
 14 15  2  0
 15 16  1  0
 15 22  1  0
 16 17  1  0
 16 26  1  0
 17 18  2  0
 17 19  1  0
 19 20  1  0
 20 21  1  0
 21 19  1  0
 22 23  2  0
 23 24  1  0
 24 13  1  0
 24 25  2  0
 25 10  1  0
M  END
> <CMPD_CHEMBLID>
CHEMBL3685018

> <STANDARD_TYPE>
Ki

> <RELATION>
=

> <STANDARD_VALUE>
0.6

> <STANDARD_UNITS>
nM

> <Molecular_Weight>
336.35958

$$$$

  SciTegic11272012012D

 28 32  0  0  0  0            999 V2000
    0.8551   -1.9812    0.0000 O   0  0
    1.4273   -1.6521    0.0000 C   0  0
    1.4285   -0.8267    0.0000 N   0  0
    0.7144   -0.4125    0.0000 C   0  0
    0.7144    0.4125    0.0000 C   0  0
    0.0000    0.8250    0.0000 C   0  0
    0.0000    1.6500    0.0000 C   0  0
   -0.7145    2.0625    0.0000 C   0  0
   -1.4290    1.6500    0.0000 C   0  0
   -1.4290    0.8250    0.0000 C   0  0
   -0.7144    0.4125    0.0000 C   0  0
   -0.7144   -0.4125    0.0000 C   0  0
    0.0000   -0.8250    0.0000 N   0  0
   -2.1438    2.0627    0.0000 C   0  0
   -2.8576    1.6491    0.0000 C   0  0
   -3.5728    2.0605    0.0000 C   0  0
   -3.5741    2.8855    0.0000 C   0  0
   -2.8603    3.2991    0.0000 C   0  0
   -2.6903    4.1059    0.0000 N   0  0
   -1.8699    4.1935    0.0000 C   0  0
   -1.5408    4.7656    0.0000 O   0  0
   -1.5332    3.4403    0.0000 C   0  0
   -2.1452    2.8877    0.0000 C   0  0
    2.1413   -2.0663    0.0000 C   0  0
    2.5103   -2.7557    0.0000 C   0  0
    2.9228   -2.0412    0.0000 C   0  0
   -3.0590    4.5140    0.0000 H   0  0
    1.9053   -0.5525    0.0000 H   0  0
  1  2  2  0
  2  3  1  0
  2 24  1  0
  3  4  1  0
  3 28  1  0
  4  5  2  0
  5  6  1  0
  6  7  2  0
  7  8  1  0
  8  9  2  0
  9 10  1  0
  9 14  1  0
 10 11  2  0
 11  6  1  0
 11 12  1  0
 12 13  2  0
 13  4  1  0
 14 15  2  0
 15 16  1  0
 16 17  2  0
 17 18  1  0
 18 19  1  0
 19 20  1  0
 19 27  1  0
 20 21  2  0
 20 22  1  0
 22 23  1  0
 23 14  1  0
 23 18  2  0
 24 25  1  0
 25 26  1  0
 26 24  1  0
M  END
> <CMPD_CHEMBLID>
CHEMBL3685150

> <STANDARD_TYPE>
Ki

> <RELATION>
=

> <STANDARD_VALUE>
0.6

> <STANDARD_UNITS>
nM

> <Molecular_Weight>
343.37858

$$$$

  SciTegic11272012012D

 30 33  0  0  0  0            999 V2000
    2.1455    0.2461    0.0000 C   0  0
    2.1445   -0.4139    0.0000 C   0  0
    2.8583   -0.8275    0.0000 C   0  0
    2.8570   -1.6525    0.0000 C   0  0
    2.1419   -2.0639    0.0000 C   0  0
    2.1408   -2.7239    0.0000 F   0  0
    1.4281   -1.6502    0.0000 C   0  0
    1.4293   -0.8252    0.0000 C   0  0
    0.7144   -0.4125    0.0000 C   0  0
    0.7144    0.4125    0.0000 C   0  0
    0.0000    0.8250    0.0000 C   0  0
   -0.7144    0.4125    0.0000 C   0  0
   -1.4290    0.8250    0.0000 C   0  0
   -2.1434    0.4125    0.0000 C   0  0
   -2.8591    0.8237    0.0000 N   0  0
   -3.5734    0.4100    0.0000 C   0  0
   -3.5722   -0.2500    0.0000 O   0  0
   -4.2891    0.8213    0.0000 N   0  0
   -5.0034    0.4075    0.0000 C   0  0
   -5.7193    0.8175    0.0000 C   0  0
   -6.4324    0.4025    0.0000 C   0  0
   -6.4295   -0.4225    0.0000 O   0  0
   -5.7136   -0.8325    0.0000 C   0  0
   -5.0006   -0.4176    0.0000 C   0  0
   -2.1434   -0.4125    0.0000 N   0  0
   -1.4290   -0.8250    0.0000 C   0  0
   -0.7144   -0.4125    0.0000 C   0  0
    0.0000   -0.8250    0.0000 C   0  0
   -4.2901    1.3713    0.0000 H   0  0
   -2.8601    1.3737    0.0000 H   0  0
  1  2  1  0
  2  3  2  0
  3  4  1  0
  4  5  2  0
  5  6  1  0
  5  7  1  0
  7  8  2  0
  8  2  1  0
  8  9  1  0
  9 10  2  0
 10 11  1  0
 11 12  2  0
 12 13  1  0
 13 14  2  0
 14 15  1  0
 14 25  1  0
 15 16  1  0
 15 30  1  0
 16 17  2  0
 16 18  1  0
 18 19  1  0
 18 29  1  0
 19 20  1  0
 20 21  1  0
 21 22  1  0
 22 23  1  0
 23 24  1  0
 24 19  1  0
 25 26  2  0
 26 27  1  0
 27 12  1  0
 27 28  2  0
 28  9  1  0
M  END
> <CMPD_CHEMBLID>
CHEMBL3685133

> <STANDARD_TYPE>
Ki

> <RELATION>
=

> <STANDARD_VALUE>
0.6

> <STANDARD_UNITS>
nM

> <Molecular_Weight>
379.42738

$$$$

  SciTegic11272012012D

 33 37  0  0  0  0            999 V2000
    2.1456    0.2461    0.0000 C   0  0
    2.1446   -0.4139    0.0000 C   0  0
    2.8584   -0.8275    0.0000 C   0  0
    2.8570   -1.6525    0.0000 C   0  0
    2.1419   -2.0639    0.0000 C   0  0
    2.1389   -2.8894    0.0000 N   0  0
    1.4228   -3.3000    0.0000 C   0  0
    0.8523   -2.9681    0.0000 O   0  0
    1.4198   -4.1254    0.0000 C   0  0
    0.7516   -4.5973    0.0000 C   0  0
    1.0053   -5.3823    0.0000 C   0  0
    1.8303   -5.3836    0.0000 O   0  0
    2.0865   -4.5994    0.0000 C   0  0
    1.4281   -1.6503    0.0000 C   0  0
    1.4293   -0.8252    0.0000 C   0  0
    0.7145   -0.4125    0.0000 C   0  0
    0.7145    0.4125    0.0000 C   0  0
    0.0000    0.8250    0.0000 C   0  0
   -0.7145    0.4125    0.0000 C   0  0
   -1.4290    0.8250    0.0000 C   0  0
   -2.1435    0.4125    0.0000 C   0  0
   -2.8592    0.8238    0.0000 N   0  0
   -3.5735    0.4100    0.0000 C   0  0
   -3.5723   -0.2500    0.0000 O   0  0
   -4.2892    0.8213    0.0000 C   0  0
   -5.0707    0.7961    0.0000 C   0  0
   -4.6582    1.5106    0.0000 C   0  0
   -2.1435   -0.4125    0.0000 N   0  0
   -1.4290   -0.8250    0.0000 C   0  0
   -0.7145   -0.4125    0.0000 C   0  0
    0.0000   -0.8250    0.0000 C   0  0
   -2.8602    1.3738    0.0000 H   0  0
    2.6143   -3.1660    0.0000 H   0  0
  1  2  1  0
  2  3  2  0
  3  4  1  0
  4  5  2  0
  5  6  1  0
  5 14  1  0
  6  7  1  0
  6 33  1  0
  7  8  2  0
  7  9  1  0
  9 10  1  0
 10 11  1  0
 11 12  1  0
 12 13  1  0
 13  9  1  0
 14 15  2  0
 15  2  1  0
 15 16  1  0
 16 17  2  0
 17 18  1  0
 18 19  2  0
 19 20  1  0
 20 21  2  0
 21 22  1  0
 21 28  1  0
 22 23  1  0
 22 32  1  0
 23 24  2  0
 23 25  1  0
 25 26  1  0
 26 27  1  0
 27 25  1  0
 28 29  2  0
 29 30  1  0
 30 19  1  0
 30 31  2  0
 31 16  1  0
M  END
> <CMPD_CHEMBLID>
CHEMBL3689543

> <STANDARD_TYPE>
Ki

> <RELATION>
=

> <STANDARD_VALUE>
0.6

> <STANDARD_UNITS>
nM

> <Molecular_Weight>
415.4843

$$$$

  SciTegic11272012012D

 29 32  0  0  0  0            999 V2000
    2.1455    0.2461    0.0000 C   0  0
    2.1445   -0.4139    0.0000 C   0  0
    2.8583   -0.8275    0.0000 C   0  0
    2.8570   -1.6525    0.0000 C   0  0
    2.1419   -2.0639    0.0000 C   0  0
    2.1408   -2.7239    0.0000 F   0  0
    1.4281   -1.6502    0.0000 C   0  0
    1.4293   -0.8252    0.0000 C   0  0
    0.7144   -0.4125    0.0000 C   0  0
    0.7144    0.4125    0.0000 C   0  0
    0.0000    0.8250    0.0000 C   0  0
   -0.7144    0.4125    0.0000 C   0  0
   -1.4290    0.8250    0.0000 C   0  0
   -2.1434    0.4125    0.0000 C   0  0
   -2.8591    0.8237    0.0000 N   0  0
   -3.5734    0.4100    0.0000 C   0  0
   -4.2893    0.8200    0.0000 C   0  0
   -5.0024    0.4050    0.0000 C   0  0
   -5.7195    0.8138    0.0000 C   0  0
   -6.4324    0.3975    0.0000 O   0  0
   -4.9995   -0.4200    0.0000 C   0  0
   -4.2836   -0.8300    0.0000 C   0  0
   -3.5706   -0.4150    0.0000 N   0  0
   -2.1434   -0.4125    0.0000 N   0  0
   -1.4290   -0.8250    0.0000 C   0  0
   -0.7144   -0.4125    0.0000 C   0  0
    0.0000   -0.8250    0.0000 C   0  0
   -6.9102    0.6700    0.0000 H   0  0
   -2.8601    1.3737    0.0000 H   0  0
  1  2  1  0
  2  3  2  0
  3  4  1  0
  4  5  2  0
  5  6  1  0
  5  7  1  0
  7  8  2  0
  8  2  1  0
  8  9  1  0
  9 10  2  0
 10 11  1  0
 11 12  2  0
 12 13  1  0
 13 14  2  0
 14 15  1  0
 14 24  1  0
 15 16  1  0
 15 29  1  0
 16 17  2  0
 17 18  1  0
 18 19  1  0
 18 21  2  0
 19 20  1  0
 20 28  1  0
 21 22  1  0
 22 23  2  0
 23 16  1  0
 24 25  2  0
 25 26  1  0
 26 12  1  0
 26 27  2  0
 27  9  1  0
M  END
> <CMPD_CHEMBLID>
CHEMBL3685119

> <STANDARD_TYPE>
Ki

> <RELATION>
=

> <STANDARD_VALUE>
0.6

> <STANDARD_UNITS>
nM

> <Molecular_Weight>
359.39622

$$$$

  SciTegic11272012012D

 26 29  0  0  0  0            999 V2000
    1.5663   -3.2177    0.0000 C   0  0
    2.1389   -2.8894    0.0000 O   0  0
    2.1419   -2.0639    0.0000 C   0  0
    2.8570   -1.6525    0.0000 C   0  0
    2.8583   -0.8275    0.0000 C   0  0
    2.1445   -0.4139    0.0000 C   0  0
    2.1456    0.2461    0.0000 C   0  0
    1.4293   -0.8252    0.0000 C   0  0
    1.4281   -1.6502    0.0000 C   0  0
    0.7145   -0.4125    0.0000 C   0  0
    0.7145    0.4125    0.0000 C   0  0
    0.0000    0.8250    0.0000 C   0  0
   -0.7145    0.4125    0.0000 C   0  0
   -1.4290    0.8250    0.0000 C   0  0
   -2.1434    0.4125    0.0000 C   0  0
   -2.8592    0.8237    0.0000 N   0  0
   -3.5735    0.4100    0.0000 C   0  0
   -3.5723   -0.2500    0.0000 O   0  0
   -4.2892    0.8213    0.0000 C   0  0
   -5.0706    0.7961    0.0000 C   0  0
   -4.6581    1.5106    0.0000 C   0  0
   -2.1434   -0.4125    0.0000 N   0  0
   -1.4290   -0.8250    0.0000 C   0  0
   -0.7145   -0.4125    0.0000 C   0  0
    0.0000   -0.8250    0.0000 C   0  0
   -2.8601    1.3738    0.0000 H   0  0
  1  2  1  0
  2  3  1  0
  3  4  2  0
  4  5  1  0
  5  6  2  0
  6  7  1  0
  6  8  1  0
  8  9  2  0
  8 10  1  0
  9  3  1  0
 10 11  2  0
 11 12  1  0
 12 13  2  0
 13 14  1  0
 14 15  2  0
 15 16  1  0
 15 22  1  0
 16 17  1  0
 16 26  1  0
 17 18  2  0
 17 19  1  0
 19 20  1  0
 20 21  1  0
 21 19  1  0
 22 23  2  0
 23 24  1  0
 24 13  1  0
 24 25  2  0
 25 10  1  0
M  END
> <CMPD_CHEMBLID>
CHEMBL3685075

> <STANDARD_TYPE>
Ki

> <RELATION>
=

> <STANDARD_VALUE>
0.6

> <STANDARD_UNITS>
nM

> <Molecular_Weight>
332.3957

$$$$

  SciTegic11272012012D

 39 43  0  0  0  0            999 V2000
   -7.5510   -2.3556    0.0000 C   0  0
   -6.9187   -2.5446    0.0000 C   0  0
   -6.7274   -3.3476    0.0000 O   0  0
   -5.9365   -3.5839    0.0000 C   0  0
   -5.7442   -4.3862    0.0000 C   0  0
   -4.9533   -4.6207    0.0000 C   0  0
   -4.3546   -4.0531    0.0000 C   0  0
   -3.5627   -4.2862    0.0000 N   0  0
   -2.9646   -3.7174    0.0000 C   0  0
   -3.1195   -3.0758    0.0000 O   0  0
   -2.1727   -3.9505    0.0000 N   0  0
   -1.5745   -3.3817    0.0000 C   0  0
   -0.7828   -3.6135    0.0000 C   0  0
   -0.1861   -3.0437    0.0000 C   0  0
   -0.3810   -2.2449    0.0000 C   0  0
   -1.1730   -2.0103    0.0000 C   0  0
   -1.7696   -2.5800    0.0000 C   0  0
    0.1713   -1.6316    0.0000 C   0  0
    0.9918   -1.7178    0.0000 C   0  0
    1.3273   -0.9641    0.0000 S   0  0
    0.7144   -0.4125    0.0000 C   0  0
    0.7144    0.4125    0.0000 C   0  0
    0.0000    0.8250    0.0000 C   0  0
   -0.7144    0.4125    0.0000 N   0  0
   -0.7144   -0.4125    0.0000 C   0  0
   -1.4302   -0.8238    0.0000 N   0  0
    0.0000   -0.8250    0.0000 C   0  0
    1.4293    0.8252    0.0000 C   0  0
    2.1731    0.4848    0.0000 C   0  0
    2.7241    1.0988    0.0000 N   0  0
    2.3105    1.8126    0.0000 N   0  0
    2.5780    2.4160    0.0000 C   0  0
    1.5038    1.6398    0.0000 C   0  0
   -4.5469   -3.2508    0.0000 C   0  0
   -5.3379   -3.0162    0.0000 C   0  0
   -1.9061   -0.5481    0.0000 H   0  0
   -1.4311   -1.3738    0.0000 H   0  0
   -2.0436   -4.4851    0.0000 H   0  0
   -3.4336   -4.8208    0.0000 H   0  0
  1  2  1  0
  2  3  1  0
  3  4  1  0
  4  5  2  0
  5  6  1  0
  6  7  2  0
  7  8  1  0
  7 34  1  0
  8  9  1  0
  8 39  1  0
  9 10  2  0
  9 11  1  0
 11 12  1  0
 11 38  1  0
 12 13  2  0
 13 14  1  0
 14 15  2  0
 15 16  1  0
 15 18  1  0
 16 17  2  0
 17 12  1  0
 18 19  2  0
 19 20  1  0
 20 21  1  0
 21 22  2  0
 22 23  1  0
 22 28  1  0
 23 24  2  0
 24 25  1  0
 25 26  1  0
 25 27  2  0
 26 36  1  0
 26 37  1  0
 27 18  1  0
 27 21  1  0
 28 29  1  0
 29 30  2  0
 30 31  1  0
 31 32  1  0
 31 33  1  0
 33 28  2  0
 34 35  2  0
 35  4  1  0
M  END
> <CMPD_CHEMBLID>
CHEMBL1974254

> <STANDARD_TYPE>
Ki

> <RELATION>
=

> <STANDARD_VALUE>
0.631

> <STANDARD_UNITS>
nM

> <Molecular_Weight>
484.57276

$$$$

  SciTegic11272012012D

 25 28  0  0  0  0            999 V2000
    2.1456    0.2461    0.0000 C   0  0
    2.1445   -0.4139    0.0000 C   0  0
    2.8583   -0.8275    0.0000 C   0  0
    2.8570   -1.6525    0.0000 C   0  0
    2.1419   -2.0639    0.0000 C   0  0
    2.1408   -2.7239    0.0000 Cl  0  0
    1.4281   -1.6502    0.0000 C   0  0
    1.4293   -0.8252    0.0000 C   0  0
    0.7145   -0.4125    0.0000 C   0  0
    0.7145    0.4125    0.0000 C   0  0
    0.0000    0.8250    0.0000 C   0  0
   -0.7145    0.4125    0.0000 C   0  0
   -1.4290    0.8250    0.0000 C   0  0
   -2.1434    0.4125    0.0000 C   0  0
   -2.8592    0.8237    0.0000 N   0  0
   -3.5735    0.4100    0.0000 C   0  0
   -3.5723   -0.2500    0.0000 O   0  0
   -4.2892    0.8213    0.0000 C   0  0
   -5.0706    0.7961    0.0000 C   0  0
   -4.6581    1.5106    0.0000 C   0  0
   -2.1434   -0.4125    0.0000 N   0  0
   -1.4290   -0.8250    0.0000 C   0  0
   -0.7145   -0.4125    0.0000 C   0  0
    0.0000   -0.8250    0.0000 C   0  0
   -2.8601    1.3738    0.0000 H   0  0
  1  2  1  0
  2  3  2  0
  3  4  1  0
  4  5  2  0
  5  6  1  0
  5  7  1  0
  7  8  2  0
  8  2  1  0
  8  9  1  0
  9 10  2  0
 10 11  1  0
 11 12  2  0
 12 13  1  0
 13 14  2  0
 14 15  1  0
 14 21  1  0
 15 16  1  0
 15 25  1  0
 16 17  2  0
 16 18  1  0
 18 19  1  0
 19 20  1  0
 20 18  1  0
 21 22  2  0
 22 23  1  0
 23 12  1  0
 23 24  2  0
 24  9  1  0
M  END
> <CMPD_CHEMBLID>
CHEMBL3689701

> <STANDARD_TYPE>
Ki

> <RELATION>
=

> <STANDARD_VALUE>
0.671

> <STANDARD_UNITS>
nM

> <Molecular_Weight>
336.81478

$$$$

  SciTegic11272012012D

 43 48  0  0  0  0            999 V2000
   -1.3084   -8.1563    0.0000 C   0  0
   -0.7352   -7.8292    0.0000 N   0  0
   -0.0228   -8.2453    0.0000 C   0  0
    0.6938   -7.8364    0.0000 C   0  0
    0.6979   -7.0114    0.0000 N   0  0
    1.4141   -6.6008    0.0000 C   0  0
    1.4171   -5.7754    0.0000 C   0  0
    0.7033   -5.3617    0.0000 C   0  0
    0.7046   -4.5367    0.0000 C   0  0
    1.4198   -4.1253    0.0000 C   0  0
    2.1336   -4.5390    0.0000 C   0  0
    2.1322   -5.3640    0.0000 C   0  0
    2.7033   -5.6950    0.0000 Cl  0  0
    1.4227   -3.2999    0.0000 C   0  0
    0.8523   -2.9680    0.0000 O   0  0
    2.1388   -2.8893    0.0000 N   0  0
    2.1419   -2.0639    0.0000 C   0  0
    2.8570   -1.6525    0.0000 C   0  0
    2.8583   -0.8275    0.0000 C   0  0
    2.1445   -0.4139    0.0000 C   0  0
    2.1455    0.2461    0.0000 C   0  0
    1.4293   -0.8252    0.0000 C   0  0
    1.4281   -1.6502    0.0000 C   0  0
    0.7144   -0.4125    0.0000 C   0  0
    0.7144    0.4125    0.0000 C   0  0
    0.0000    0.8250    0.0000 C   0  0
   -0.7144    0.4125    0.0000 C   0  0
   -1.4290    0.8250    0.0000 C   0  0
   -2.1434    0.4125    0.0000 C   0  0
   -2.8591    0.8237    0.0000 N   0  0
   -3.5734    0.4100    0.0000 C   0  0
   -3.5722   -0.2500    0.0000 O   0  0
   -4.2891    0.8213    0.0000 C   0  0
   -5.0706    0.7961    0.0000 C   0  0
   -4.6581    1.5106    0.0000 C   0  0
   -2.1434   -0.4125    0.0000 N   0  0
   -1.4290   -0.8250    0.0000 C   0  0
   -0.7144   -0.4125    0.0000 C   0  0
    0.0000   -0.8250    0.0000 C   0  0
   -0.0145   -6.5953    0.0000 C   0  0
   -0.7310   -7.0042    0.0000 C   0  0
   -2.8601    1.3737    0.0000 H   0  0
    2.6143   -3.1659    0.0000 H   0  0
  1  2  1  0
  2  3  1  0
  3  4  1  0
  4  5  1  0
  5  6  1  0
  5 40  1  0
  6  7  1  0
  7  8  2  0
  8  9  1  0
  9 10  2  0
 10 11  1  0
 10 14  1  0
 11 12  2  0
 12  7  1  0
 12 13  1  0
 14 15  2  0
 14 16  1  0
 16 17  1  0
 16 43  1  0
 17 18  2  0
 18 19  1  0
 19 20  2  0
 20 21  1  0
 20 22  1  0
 22 23  2  0
 22 24  1  0
 23 17  1  0
 24 25  2  0
 25 26  1  0
 26 27  2  0
 27 28  1  0
 28 29  2  0
 29 30  1  0
 29 36  1  0
 30 31  1  0
 30 42  1  0
 31 32  2  0
 31 33  1  0
 33 34  1  0
 34 35  1  0
 35 33  1  0
 36 37  2  0
 37 38  1  0
 38 27  1  0
 38 39  2  0
 39 24  1  0
 40 41  1  0
 41  2  1  0
M  END
> <CMPD_CHEMBLID>
CHEMBL3685140

> <STANDARD_TYPE>
Ki

> <RELATION>
=

> <STANDARD_VALUE>
0.7

> <STANDARD_UNITS>
nM

> <Molecular_Weight>
568.10836

$$$$

  SciTegic11272012012D

 33 37  0  0  0  0            999 V2000
    2.1455    0.2461    0.0000 C   0  0
    2.1445   -0.4139    0.0000 C   0  0
    2.8583   -0.8275    0.0000 C   0  0
    2.8570   -1.6525    0.0000 C   0  0
    2.1419   -2.0639    0.0000 C   0  0
    2.1408   -2.7239    0.0000 F   0  0
    1.4281   -1.6502    0.0000 C   0  0
    1.4293   -0.8252    0.0000 C   0  0
    0.7144   -0.4125    0.0000 C   0  0
    0.7144    0.4125    0.0000 C   0  0
    0.0000    0.8250    0.0000 C   0  0
    0.0000    1.6500    0.0000 C   0  0
   -0.7145    2.0625    0.0000 N   0  0
   -1.4290    1.6500    0.0000 C   0  0
   -2.1447    2.0612    0.0000 N   0  0
   -2.8590    1.6475    0.0000 C   0  0
   -2.8578    0.9875    0.0000 O   0  0
   -3.5747    2.0588    0.0000 C   0  0
   -4.3561    2.0337    0.0000 C   0  0
   -3.9436    2.7481    0.0000 C   0  0
   -1.4290    0.8250    0.0000 C   0  0
   -0.7144    0.4125    0.0000 C   0  0
   -0.7144   -0.4125    0.0000 C   0  0
   -1.4285   -0.8267    0.0000 O   0  0
   -1.4273   -1.6521    0.0000 C   0  0
   -2.1403   -2.0672    0.0000 C   0  0
   -2.1375   -2.8922    0.0000 C   0  0
   -1.4216   -3.3022    0.0000 N   0  0
   -0.7086   -2.8872    0.0000 C   0  0
   -0.7114   -2.0622    0.0000 C   0  0
    0.0000   -0.8250    0.0000 N   0  0
   -1.4197   -3.8522    0.0000 H   0  0
   -2.1457    2.6112    0.0000 H   0  0
  1  2  1  0
  2  3  2  0
  3  4  1  0
  4  5  2  0
  5  6  1  0
  5  7  1  0
  7  8  2  0
  8  2  1  0
  8  9  1  0
  9 10  2  0
 10 11  1  0
 11 12  2  0
 12 13  1  0
 13 14  2  0
 14 15  1  0
 14 21  1  0
 15 16  1  0
 15 33  1  0
 16 17  2  0
 16 18  1  0
 18 19  1  0
 19 20  1  0
 20 18  1  0
 21 22  2  0
 22 11  1  0
 22 23  1  0
 23 24  1  0
 23 31  2  0
 24 25  1  0
 25 26  1  0
 26 27  1  0
 27 28  1  0
 28 29  1  0
 28 32  1  0
 29 30  1  0
 30 25  1  0
 31  9  1  0
M  END
> <CMPD_CHEMBLID>
CHEMBL3689671

> <STANDARD_TYPE>
Ki

> <RELATION>
=

> <STANDARD_VALUE>
0.7

> <STANDARD_UNITS>
nM

> <Molecular_Weight>
420.4793

$$$$

  SciTegic11272012012D

 22 24  0  0  0  0            999 V2000
    1.9982   -1.9833    0.0000 C   0  0
    1.4273   -1.6522    0.0000 C   0  0
    0.8552   -1.9812    0.0000 C   0  0
    1.4285   -0.8267    0.0000 N   0  0
    0.7145   -0.4125    0.0000 C   0  0
    0.7145    0.4125    0.0000 C   0  0
    0.0000    0.8250    0.0000 C   0  0
   -0.7145    0.4125    0.0000 C   0  0
   -1.4290    0.8250    0.0000 C   0  0
   -2.1435    0.4125    0.0000 C   0  0
   -2.8592    0.8238    0.0000 N   0  0
   -3.5735    0.4100    0.0000 C   0  0
   -3.5723   -0.2500    0.0000 O   0  0
   -4.2892    0.8213    0.0000 C   0  0
   -5.0707    0.7961    0.0000 C   0  0
   -4.6582    1.5106    0.0000 C   0  0
   -2.1435   -0.4125    0.0000 N   0  0
   -1.4290   -0.8250    0.0000 C   0  0
   -0.7145   -0.4125    0.0000 C   0  0
    0.0000   -0.8250    0.0000 C   0  0
   -2.8602    1.3738    0.0000 H   0  0
    1.9054   -0.5525    0.0000 H   0  0
  1  2  1  0
  2  3  1  0
  2  4  1  0
  4  5  1  0
  4 22  1  0
  5  6  2  0
  6  7  1  0
  7  8  2  0
  8  9  1  0
  9 10  2  0
 10 11  1  0
 10 17  1  0
 11 12  1  0
 11 21  1  0
 12 13  2  0
 12 14  1  0
 14 15  1  0
 15 16  1  0
 16 14  1  0
 17 18  2  0
 18 19  1  0
 19  8  1  0
 19 20  2  0
 20  5  1  0
M  END
> <CMPD_CHEMBLID>
CHEMBL3685138

> <STANDARD_TYPE>
Ki

> <RELATION>
=

> <STANDARD_VALUE>
0.7

> <STANDARD_UNITS>
nM

> <Molecular_Weight>
269.34156

$$$$

  SciTegic11272012012D

 40 45  0  0  0  0            999 V2000
    2.2162   -8.3923    0.0000 C   0  0
    1.8283   -7.8583    0.0000 N   0  0
    1.0033   -7.8583    0.0000 C   0  0
    0.7483   -7.0737    0.0000 C   0  0
    1.4158   -6.6008    0.0000 C   0  0
    2.0832   -7.0737    0.0000 C   0  0
    1.4171   -5.7754    0.0000 C   0  0
    0.7033   -5.3617    0.0000 C   0  0
    0.7046   -4.5367    0.0000 C   0  0
    1.4198   -4.1253    0.0000 C   0  0
    2.1336   -4.5390    0.0000 C   0  0
    2.1322   -5.3640    0.0000 C   0  0
    1.4227   -3.2999    0.0000 C   0  0
    0.8523   -2.9680    0.0000 O   0  0
    2.1388   -2.8893    0.0000 N   0  0
    2.1419   -2.0639    0.0000 C   0  0
    2.8570   -1.6525    0.0000 C   0  0
    2.8583   -0.8275    0.0000 C   0  0
    2.1445   -0.4139    0.0000 C   0  0
    2.1455    0.2461    0.0000 C   0  0
    1.4293   -0.8252    0.0000 C   0  0
    1.4281   -1.6502    0.0000 C   0  0
    0.7144   -0.4125    0.0000 C   0  0
    0.7144    0.4125    0.0000 C   0  0
    0.0000    0.8250    0.0000 C   0  0
   -0.7144    0.4125    0.0000 C   0  0
   -1.4290    0.8250    0.0000 C   0  0
   -2.1434    0.4125    0.0000 C   0  0
   -2.8591    0.8237    0.0000 N   0  0
   -3.5734    0.4100    0.0000 C   0  0
   -3.5722   -0.2500    0.0000 O   0  0
   -4.2891    0.8213    0.0000 C   0  0
   -5.0706    0.7961    0.0000 C   0  0
   -4.6581    1.5106    0.0000 C   0  0
   -2.1434   -0.4125    0.0000 N   0  0
   -1.4290   -0.8250    0.0000 C   0  0
   -0.7144   -0.4125    0.0000 C   0  0
    0.0000   -0.8250    0.0000 C   0  0
   -2.8601    1.3737    0.0000 H   0  0
    2.6143   -3.1659    0.0000 H   0  0
  1  2  1  0
  2  3  1  0
  3  4  1  0
  4  5  1  0
  5  6  1  0
  5  7  1  0
  6  2  1  0
  7  8  2  0
  8  9  1  0
  9 10  2  0
 10 11  1  0
 10 13  1  0
 11 12  2  0
 12  7  1  0
 13 14  2  0
 13 15  1  0
 15 16  1  0
 15 40  1  0
 16 17  2  0
 17 18  1  0
 18 19  2  0
 19 20  1  0
 19 21  1  0
 21 22  2  0
 21 23  1  0
 22 16  1  0
 23 24  2  0
 24 25  1  0
 25 26  2  0
 26 27  1  0
 27 28  2  0
 28 29  1  0
 28 35  1  0
 29 30  1  0
 29 39  1  0
 30 31  2  0
 30 32  1  0
 32 33  1  0
 33 34  1  0
 34 32  1  0
 35 36  2  0
 36 37  1  0
 37 26  1  0
 37 38  2  0
 38 23  1  0
M  END
> <CMPD_CHEMBLID>
CHEMBL3689559

> <STANDARD_TYPE>
Ki

> <RELATION>
=

> <STANDARD_VALUE>
0.7

> <STANDARD_UNITS>
nM

> <Molecular_Weight>
504.62208

$$$$

  SciTegic11272012012D

 26 29  0  0  0  0            999 V2000
    2.1456    0.2461    0.0000 C   0  0
    2.1445   -0.4139    0.0000 C   0  0
    2.8583   -0.8275    0.0000 C   0  0
    2.8570   -1.6525    0.0000 C   0  0
    2.1419   -2.0639    0.0000 C   0  0
    2.1408   -2.7239    0.0000 F   0  0
    1.4281   -1.6502    0.0000 C   0  0
    1.4293   -0.8252    0.0000 C   0  0
    0.7145   -0.4125    0.0000 C   0  0
    0.7145    0.4125    0.0000 C   0  0
    0.0000    0.8250    0.0000 C   0  0
   -0.7145    0.4125    0.0000 C   0  0
   -1.4290    0.8250    0.0000 C   0  0
   -1.4290    1.4850    0.0000 F   0  0
   -2.1434    0.4125    0.0000 C   0  0
   -2.8592    0.8237    0.0000 N   0  0
   -3.5735    0.4100    0.0000 C   0  0
   -3.5723   -0.2500    0.0000 O   0  0
   -4.2892    0.8213    0.0000 C   0  0
   -5.0706    0.7961    0.0000 C   0  0
   -4.6581    1.5106    0.0000 C   0  0
   -2.1434   -0.4125    0.0000 N   0  0
   -1.4290   -0.8250    0.0000 C   0  0
   -0.7145   -0.4125    0.0000 C   0  0
    0.0000   -0.8250    0.0000 C   0  0
   -2.8601    1.3738    0.0000 H   0  0
  1  2  1  0
  2  3  2  0
  3  4  1  0
  4  5  2  0
  5  6  1  0
  5  7  1  0
  7  8  2  0
  8  2  1  0
  8  9  1  0
  9 10  2  0
 10 11  1  0
 11 12  2  0
 12 13  1  0
 13 14  1  0
 13 15  2  0
 15 16  1  0
 15 22  1  0
 16 17  1  0
 16 26  1  0
 17 18  2  0
 17 19  1  0
 19 20  1  0
 20 21  1  0
 21 19  1  0
 22 23  2  0
 23 24  1  0
 24 12  1  0
 24 25  2  0
 25  9  1  0
M  END
> <CMPD_CHEMBLID>
CHEMBL3685115

> <STANDARD_TYPE>
Ki

> <RELATION>
=

> <STANDARD_VALUE>
0.7

> <STANDARD_UNITS>
nM

> <Molecular_Weight>
338.35065

$$$$

  SciTegic11272012012D

 25 28  0  0  0  0            999 V2000
    3.4281   -1.9835    0.0000 C   0  0
    2.8570   -1.6525    0.0000 C   0  0
    2.8584   -0.8275    0.0000 C   0  0
    2.1446   -0.4139    0.0000 C   0  0
    2.1456    0.2461    0.0000 C   0  0
    1.4293   -0.8252    0.0000 C   0  0
    1.4281   -1.6503    0.0000 C   0  0
    2.1419   -2.0639    0.0000 N   0  0
    0.7145   -0.4125    0.0000 C   0  0
    0.7145    0.4125    0.0000 C   0  0
    0.0000    0.8250    0.0000 C   0  0
   -0.7145    0.4125    0.0000 C   0  0
   -1.4290    0.8250    0.0000 C   0  0
   -2.1435    0.4125    0.0000 C   0  0
   -2.8592    0.8238    0.0000 N   0  0
   -3.5735    0.4100    0.0000 C   0  0
   -3.5723   -0.2500    0.0000 O   0  0
   -4.2892    0.8213    0.0000 C   0  0
   -5.0707    0.7961    0.0000 C   0  0
   -4.6582    1.5106    0.0000 C   0  0
   -2.1435   -0.4125    0.0000 N   0  0
   -1.4290   -0.8250    0.0000 C   0  0
   -0.7145   -0.4125    0.0000 C   0  0
    0.0000   -0.8250    0.0000 C   0  0
   -2.8602    1.3738    0.0000 H   0  0
  1  2  1  0
  2  3  2  0
  3  4  1  0
  4  5  1  0
  4  6  2  0
  6  7  1  0
  6  9  1  0
  7  8  2  0
  8  2  1  0
  9 10  2  0
 10 11  1  0
 11 12  2  0
 12 13  1  0
 13 14  2  0
 14 15  1  0
 14 21  1  0
 15 16  1  0
 15 25  1  0
 16 17  2  0
 16 18  1  0
 18 19  1  0
 19 20  1  0
 20 18  1  0
 21 22  2  0
 22 23  1  0
 23 12  1  0
 23 24  2  0
 24  9  1  0
M  END
> <CMPD_CHEMBLID>
CHEMBL3685060

> <STANDARD_TYPE>
Ki

> <RELATION>
=

> <STANDARD_VALUE>
0.7

> <STANDARD_UNITS>
nM

> <Molecular_Weight>
317.38436

$$$$

  SciTegic11272012012D

 26 29  0  0  0  0            999 V2000
    2.1456    0.2461    0.0000 C   0  0
    2.1445   -0.4139    0.0000 C   0  0
    2.8583   -0.8275    0.0000 C   0  0
    2.8570   -1.6525    0.0000 C   0  0
    2.1419   -2.0639    0.0000 N   0  0
    1.4281   -1.6502    0.0000 C   0  0
    1.4293   -0.8252    0.0000 C   0  0
    0.7145   -0.4125    0.0000 C   0  0
    0.7145    0.4125    0.0000 C   0  0
    0.0000    0.8250    0.0000 C   0  0
   -0.7145    0.4125    0.0000 C   0  0
   -1.4290    0.8250    0.0000 C   0  0
   -1.4290    1.6505    0.0000 C   0  0
   -1.4290    2.3105    0.0000 N   0  0
   -2.1434    0.4125    0.0000 C   0  0
   -2.8592    0.8237    0.0000 N   0  0
   -3.5735    0.4100    0.0000 C   0  0
   -3.5723   -0.2500    0.0000 O   0  0
   -4.2892    0.8213    0.0000 C   0  0
   -5.0706    0.7961    0.0000 C   0  0
   -4.6581    1.5106    0.0000 C   0  0
   -2.1434   -0.4125    0.0000 N   0  0
   -1.4290   -0.8250    0.0000 C   0  0
   -0.7145   -0.4125    0.0000 C   0  0
    0.0000   -0.8250    0.0000 C   0  0
   -2.8601    1.3738    0.0000 H   0  0
  1  2  1  0
  2  3  2  0
  3  4  1  0
  4  5  2  0
  5  6  1  0
  6  7  2  0
  7  2  1  0
  7  8  1  0
  8  9  2  0
  9 10  1  0
 10 11  2  0
 11 12  1  0
 12 13  1  0
 12 15  2  0
 13 14  3  0
 15 16  1  0
 15 22  1  0
 16 17  1  0
 16 26  1  0
 17 18  2  0
 17 19  1  0
 19 20  1  0
 20 21  1  0
 21 19  1  0
 22 23  2  0
 23 24  1  0
 24 11  1  0
 24 25  2  0
 25  8  1  0
M  END
> <CMPD_CHEMBLID>
CHEMBL3689620

> <STANDARD_TYPE>
Ki

> <RELATION>
=

> <STANDARD_VALUE>
0.7

> <STANDARD_UNITS>
nM

> <Molecular_Weight>
328.36724

$$$$

  SciTegic11272012012D

 25 28  0  0  0  0            999 V2000
    2.1456    0.2461    0.0000 C   0  0
    2.1445   -0.4139    0.0000 C   0  0
    2.8583   -0.8275    0.0000 N   0  0
    2.8570   -1.6525    0.0000 C   0  0
    2.1419   -2.0639    0.0000 C   0  0
    2.1408   -2.7239    0.0000 F   0  0
    1.4281   -1.6502    0.0000 C   0  0
    1.4293   -0.8252    0.0000 C   0  0
    0.7145   -0.4125    0.0000 C   0  0
    0.7145    0.4125    0.0000 C   0  0
    0.0000    0.8250    0.0000 C   0  0
   -0.7145    0.4125    0.0000 C   0  0
   -1.4290    0.8250    0.0000 C   0  0
   -2.1434    0.4125    0.0000 C   0  0
   -2.8592    0.8237    0.0000 N   0  0
   -3.5735    0.4100    0.0000 C   0  0
   -3.5723   -0.2500    0.0000 O   0  0
   -4.2892    0.8213    0.0000 C   0  0
   -5.0706    0.7961    0.0000 C   0  0
   -4.6581    1.5106    0.0000 C   0  0
   -2.1434   -0.4125    0.0000 N   0  0
   -1.4290   -0.8250    0.0000 C   0  0
   -0.7145   -0.4125    0.0000 C   0  0
    0.0000   -0.8250    0.0000 C   0  0
   -2.8601    1.3738    0.0000 H   0  0
  1  2  1  0
  2  3  2  0
  3  4  1  0
  4  5  2  0
  5  6  1  0
  5  7  1  0
  7  8  2  0
  8  2  1  0
  8  9  1  0
  9 10  2  0
 10 11  1  0
 11 12  2  0
 12 13  1  0
 13 14  2  0
 14 15  1  0
 14 21  1  0
 15 16  1  0
 15 25  1  0
 16 17  2  0
 16 18  1  0
 18 19  1  0
 19 20  1  0
 20 18  1  0
 21 22  2  0
 22 23  1  0
 23 12  1  0
 23 24  2  0
 24  9  1  0
M  END
> <CMPD_CHEMBLID>
CHEMBL3685063

> <STANDARD_TYPE>
Ki

> <RELATION>
=

> <STANDARD_VALUE>
0.7

> <STANDARD_UNITS>
nM

> <Molecular_Weight>
321.34824

$$$$

  SciTegic11272012012D

 23 26  0  0  0  0            999 V2000
    0.8551   -1.9812    0.0000 O   0  0
    1.4273   -1.6521    0.0000 C   0  0
    1.4285   -0.8267    0.0000 N   0  0
    0.7144   -0.4125    0.0000 C   0  0
    0.7144    0.4125    0.0000 C   0  0
    0.0000    0.8250    0.0000 C   0  0
    0.0000    1.6500    0.0000 C   0  0
   -0.7145    2.0625    0.0000 C   0  0
   -1.4290    1.6500    0.0000 C   0  0
   -1.4290    0.8250    0.0000 C   0  0
   -0.7144    0.4125    0.0000 C   0  0
   -0.7144   -0.4125    0.0000 C   0  0
    0.0000   -0.8250    0.0000 N   0  0
   -2.1438    2.0627    0.0000 C   0  0
   -2.8865    1.7200    0.0000 C   0  0
   -3.4395    2.3322    0.0000 C   0  0
   -3.0281    3.0473    0.0000 C   0  0
   -2.2209    2.8770    0.0000 N   0  0
    2.1413   -2.0663    0.0000 C   0  0
    2.5103   -2.7557    0.0000 C   0  0
    2.9228   -2.0412    0.0000 C   0  0
   -1.8106    3.2433    0.0000 H   0  0
    1.9053   -0.5525    0.0000 H   0  0
  1  2  2  0
  2  3  1  0
  2 19  1  0
  3  4  1  0
  3 23  1  0
  4  5  2  0
  5  6  1  0
  6  7  2  0
  7  8  1  0
  8  9  2  0
  9 10  1  0
  9 14  1  0
 10 11  2  0
 11  6  1  0
 11 12  1  0
 12 13  2  0
 13  4  1  0
 14 15  2  0
 15 16  1  0
 16 17  2  0
 17 18  1  0
 18 14  1  0
 18 22  1  0
 19 20  1  0
 20 21  1  0
 21 19  1  0
M  END
> <CMPD_CHEMBLID>
CHEMBL3685087

> <STANDARD_TYPE>
Ki

> <RELATION>
=

> <STANDARD_VALUE>
0.7

> <STANDARD_UNITS>
nM

> <Molecular_Weight>
277.3205

$$$$

  SciTegic11272012012D

 34 38  0  0  0  0            999 V2000
    2.1456    0.2461    0.0000 C   0  0
    2.1445   -0.4139    0.0000 C   0  0
    2.8583   -0.8275    0.0000 C   0  0
    2.8570   -1.6525    0.0000 C   0  0
    2.1419   -2.0639    0.0000 C   0  0
    1.4281   -1.6502    0.0000 C   0  0
    1.4293   -0.8252    0.0000 C   0  0
    0.7145   -0.4125    0.0000 C   0  0
    0.7145    0.4125    0.0000 C   0  0
    0.0000    0.8250    0.0000 C   0  0
   -0.7145    0.4125    0.0000 C   0  0
   -1.4290    0.8250    0.0000 C   0  0
   -2.1434    0.4125    0.0000 C   0  0
   -2.8592    0.8237    0.0000 N   0  0
   -3.5735    0.4100    0.0000 C   0  0
   -3.5723   -0.2500    0.0000 O   0  0
   -4.2892    0.8213    0.0000 C   0  0
   -5.0706    0.7961    0.0000 C   0  0
   -4.6581    1.5106    0.0000 C   0  0
   -2.1434   -0.4125    0.0000 N   0  0
   -1.4290   -0.8250    0.0000 C   0  0
   -0.7145   -0.4125    0.0000 C   0  0
    0.0000   -0.8250    0.0000 C   0  0
    2.1389   -2.8894    0.0000 C   0  0
    2.7094   -3.2213    0.0000 O   0  0
    1.4228   -3.2999    0.0000 N   0  0
    1.4198   -4.1254    0.0000 C   0  0
    0.8355   -4.6794    0.0000 C   0  0
    1.4180   -5.2637    0.0000 C   0  0
    0.8448   -5.5909    0.0000 F   0  0
    1.9901   -5.5928    0.0000 F   0  0
    2.0023   -4.6813    0.0000 C   0  0
    0.9474   -3.0233    0.0000 H   0  0
   -2.8601    1.3738    0.0000 H   0  0
  1  2  1  0
  2  3  2  0
  3  4  1  0
  4  5  2  0
  5  6  1  0
  5 24  1  0
  6  7  2  0
  7  2  1  0
  7  8  1  0
  8  9  2  0
  9 10  1  0
 10 11  2  0
 11 12  1  0
 12 13  2  0
 13 14  1  0
 13 20  1  0
 14 15  1  0
 14 34  1  0
 15 16  2  0
 15 17  1  0
 17 18  1  0
 18 19  1  0
 19 17  1  0
 20 21  2  0
 21 22  1  0
 22 11  1  0
 22 23  2  0
 23  8  1  0
 24 25  2  0
 24 26  1  0
 26 27  1  0
 26 33  1  0
 27 28  1  0
 28 29  1  0
 29 30  1  0
 29 31  1  0
 29 32  1  0
 32 27  1  0
M  END
> <CMPD_CHEMBLID>
CHEMBL3689738

> <STANDARD_TYPE>
Ki

> <RELATION>
=

> <STANDARD_VALUE>
0.706

> <STANDARD_UNITS>
nM

> <Molecular_Weight>
435.46583

$$$$

  SciTegic11272012012D

 41 45  0  0  0  0            999 V2000
    7.8485    4.3779    0.0000 C   0  0
    7.8508    3.7179    0.0000 N   0  0
    8.5667    3.3079    0.0000 C   0  0
    8.5696    2.4829    0.0000 C   0  0
    7.8566    2.0679    0.0000 N   0  0
    7.8578    1.2424    0.0000 C   0  0
    7.1438    0.8282    0.0000 C   0  0
    6.4293    1.2407    0.0000 C   0  0
    5.7149    0.8282    0.0000 C   0  0
    5.7148    0.0032    0.0000 C   0  0
    5.0008   -0.4110    0.0000 N   0  0
    5.0020   -1.2364    0.0000 C   0  0
    5.5742   -1.5655    0.0000 O   0  0
    4.2880   -1.6507    0.0000 C   0  0
    4.2880   -2.4756    0.0000 C   0  0
    3.5735   -2.8881    0.0000 C   0  0
    2.8590   -2.4756    0.0000 C   0  0
    2.2875   -2.8056    0.0000 C   0  0
    2.8590   -1.6507    0.0000 C   0  0
    3.5735   -1.2382    0.0000 C   0  0
    2.1442   -1.2379    0.0000 C   0  0
    1.4293   -0.8252    0.0000 C   0  0
    0.7144   -0.4125    0.0000 C   0  0
    0.7144    0.4125    0.0000 C   0  0
    0.0000    0.8250    0.0000 N   0  0
   -0.7144    0.4125    0.0000 C   0  0
   -0.7144   -0.4125    0.0000 C   0  0
   -1.4986   -0.6674    0.0000 C   0  0
   -1.9836    0.0000    0.0000 N   0  0
   -1.4986    0.6674    0.0000 N   0  0
   -1.7025    1.2951    0.0000 C   0  0
    0.0000   -0.8250    0.0000 C   0  0
    6.4294   -0.4093    0.0000 C   0  0
    7.1438    0.0032    0.0000 C   0  0
    7.8587   -0.4095    0.0000 C   0  0
    7.8591   -1.0695    0.0000 F   0  0
    8.4301   -0.0793    0.0000 F   0  0
    8.4304   -0.7392    0.0000 F   0  0
    7.1407    2.4780    0.0000 C   0  0
    7.1378    3.3030    0.0000 C   0  0
    4.5241   -0.1368    0.0000 H   0  0
  1  2  1  0
  2  3  1  0
  3  4  1  0
  4  5  1  0
  5  6  1  0
  5 39  1  0
  6  7  1  0
  7  8  2  0
  8  9  1  0
  9 10  2  0
 10 11  1  0
 10 33  1  0
 11 12  1  0
 11 41  1  0
 12 13  2  0
 12 14  1  0
 14 15  2  0
 15 16  1  0
 16 17  2  0
 17 18  1  0
 17 19  1  0
 19 20  2  0
 19 21  1  0
 20 14  1  0
 21 22  3  0
 22 23  1  0
 23 24  2  0
 24 25  1  0
 25 26  2  0
 26 27  1  0
 27 28  1  0
 27 32  2  0
 28 29  2  0
 29 30  1  0
 30 26  1  0
 30 31  1  0
 32 23  1  0
 33 34  2  0
 34  7  1  0
 34 35  1  0
 35 36  1  0
 35 37  1  0
 35 38  1  0
 39 40  1  0
 40  2  1  0
M  END
> <CMPD_CHEMBLID>
CHEMBL2316580

> <STANDARD_TYPE>
IC50

> <RELATION>
=

> <STANDARD_VALUE>
0.71

> <STANDARD_UNITS>
nM

> <Molecular_Weight>
546.58607

$$$$

  SciTegic11272012012D

 23 26  0  0  0  0            999 V2000
    0.8551   -1.9812    0.0000 O   0  0
    1.4273   -1.6521    0.0000 C   0  0
    1.4285   -0.8267    0.0000 N   0  0
    0.7144   -0.4125    0.0000 C   0  0
    0.7144    0.4125    0.0000 C   0  0
    0.0000    0.8250    0.0000 C   0  0
    0.0000    1.6500    0.0000 C   0  0
   -0.7145    2.0625    0.0000 C   0  0
   -1.4290    1.6500    0.0000 C   0  0
   -1.4290    0.8250    0.0000 C   0  0
   -0.7144    0.4125    0.0000 C   0  0
   -0.7144   -0.4125    0.0000 C   0  0
    0.0000   -0.8250    0.0000 N   0  0
   -2.1438    2.0627    0.0000 C   0  0
   -2.1452    2.8877    0.0000 C   0  0
   -2.8603    3.2991    0.0000 C   0  0
   -3.5741    2.8855    0.0000 C   0  0
   -3.5728    2.0605    0.0000 N   0  0
   -2.8576    1.6491    0.0000 C   0  0
    2.1413   -2.0663    0.0000 C   0  0
    2.5103   -2.7557    0.0000 C   0  0
    2.9228   -2.0412    0.0000 C   0  0
    1.9053   -0.5525    0.0000 H   0  0
  1  2  2  0
  2  3  1  0
  2 20  1  0
  3  4  1  0
  3 23  1  0
  4  5  2  0
  5  6  1  0
  6  7  2  0
  7  8  1  0
  8  9  2  0
  9 10  1  0
  9 14  1  0
 10 11  2  0
 11  6  1  0
 11 12  1  0
 12 13  2  0
 13  4  1  0
 14 15  2  0
 15 16  1  0
 16 17  2  0
 17 18  1  0
 18 19  2  0
 19 14  1  0
 20 21  1  0
 21 22  1  0
 22 20  1  0
M  END
> <CMPD_CHEMBLID>
CHEMBL3689704

> <STANDARD_TYPE>
Ki

> <RELATION>
=

> <STANDARD_VALUE>
0.712

> <STANDARD_UNITS>
nM

> <Molecular_Weight>
289.3312

$$$$

  SciTegic11272012012D

 25 28  0  0  0  0            999 V2000
    2.1456    0.2461    0.0000 C   0  0
    2.1446   -0.4139    0.0000 C   0  0
    2.8584   -0.8275    0.0000 N   0  0
    2.8570   -1.6525    0.0000 C   0  0
    3.4281   -1.9835    0.0000 Cl  0  0
    2.1419   -2.0639    0.0000 N   0  0
    1.4281   -1.6503    0.0000 C   0  0
    1.4293   -0.8252    0.0000 C   0  0
    0.7145   -0.4125    0.0000 C   0  0
    0.7145    0.4125    0.0000 C   0  0
    0.0000    0.8250    0.0000 C   0  0
   -0.7145    0.4125    0.0000 C   0  0
   -1.4290    0.8250    0.0000 C   0  0
   -2.1435    0.4125    0.0000 C   0  0
   -2.8592    0.8238    0.0000 N   0  0
   -3.5735    0.4100    0.0000 C   0  0
   -3.5723   -0.2500    0.0000 O   0  0
   -4.2892    0.8213    0.0000 C   0  0
   -5.0707    0.7961    0.0000 C   0  0
   -4.6582    1.5106    0.0000 C   0  0
   -2.1435   -0.4125    0.0000 N   0  0
   -1.4290   -0.8250    0.0000 C   0  0
   -0.7145   -0.4125    0.0000 C   0  0
    0.0000   -0.8250    0.0000 C   0  0
   -2.8602    1.3738    0.0000 H   0  0
  1  2  1  0
  2  3  2  0
  3  4  1  0
  4  5  1  0
  4  6  2  0
  6  7  1  0
  7  8  2  0
  8  2  1  0
  8  9  1  0
  9 10  2  0
 10 11  1  0
 11 12  2  0
 12 13  1  0
 13 14  2  0
 14 15  1  0
 14 21  1  0
 15 16  1  0
 15 25  1  0
 16 17  2  0
 16 18  1  0
 18 19  1  0
 19 20  1  0
 20 18  1  0
 21 22  2  0
 22 23  1  0
 23 12  1  0
 23 24  2  0
 24  9  1  0
M  END
> <CMPD_CHEMBLID>
CHEMBL3689691

> <STANDARD_TYPE>
Ki

> <RELATION>
=

> <STANDARD_VALUE>
0.789

> <STANDARD_UNITS>
nM

> <Molecular_Weight>
338.7909

$$$$

  SciTegic11272012012D

 41 45  0  0  0  0            999 V2000
    3.7568   -2.2870    0.0000 C   0  0
    4.0272   -1.6849    0.0000 C   0  0
    4.8485   -1.6017    0.0000 O   0  0
    3.5441   -1.0156    0.0000 C   0  0
    2.7242   -1.0988    0.0000 N   0  0
    2.1731   -0.4848    0.0000 C   0  0
    1.4293   -0.8252    0.0000 C   0  0
    1.5039   -1.6398    0.0000 C   0  0
    2.3106   -1.8126    0.0000 N   0  0
    0.7145   -0.4125    0.0000 C   0  0
    0.7145    0.4125    0.0000 C   0  0
    0.0000    0.8250    0.0000 N   0  0
   -0.7145    0.4125    0.0000 C   0  0
   -1.4285    0.8267    0.0000 N   0  0
   -0.7145   -0.4125    0.0000 C   0  0
   -1.3273   -0.9642    0.0000 C   0  0
   -0.9918   -1.7178    0.0000 C   0  0
   -0.1713   -1.6316    0.0000 S   0  0
    0.0000   -0.8250    0.0000 C   0  0
   -2.1347   -0.7924    0.0000 C   0  0
   -2.4465   -0.0316    0.0000 C   0  0
   -3.2641    0.0788    0.0000 C   0  0
   -3.7684   -0.5741    0.0000 C   0  0
   -4.5867   -0.4654    0.0000 N   0  0
   -5.0904   -1.1194    0.0000 C   0  0
   -4.8387   -1.7295    0.0000 O   0  0
   -5.9086   -1.0107    0.0000 N   0  0
   -6.4123   -1.6646    0.0000 C   0  0
   -7.2304   -1.5572    0.0000 C   0  0
   -7.7325   -2.2118    0.0000 C   0  0
   -7.4165   -2.9739    0.0000 C   0  0
   -6.5986   -3.0815    0.0000 C   0  0
   -6.3459   -3.6912    0.0000 F   0  0
   -6.0965   -2.4268    0.0000 C   0  0
   -3.4552   -1.3373    0.0000 C   0  0
   -2.6375   -1.4477    0.0000 C   0  0
   -6.1184   -0.5022    0.0000 H   0  0
   -4.7964    0.0430    0.0000 H   0  0
   -1.4277    1.3767    0.0000 H   0  0
   -1.9053    0.5525    0.0000 H   0  0
    5.1704   -2.0476    0.0000 H   0  0
  1  2  1  0
  2  3  1  0
  2  4  1  0
  3 41  1  0
  4  5  1  0
  5  6  1  0
  6  7  2  0
  7  8  1  0
  7 10  1  0
  8  9  2  0
  9  5  1  0
 10 11  2  0
 11 12  1  0
 12 13  2  0
 13 14  1  0
 13 15  1  0
 14 39  1  0
 14 40  1  0
 15 16  1  0
 16 17  2  0
 16 20  1  0
 17 18  1  0
 18 19  1  0
 19 10  1  0
 19 15  2  0
 20 21  2  0
 21 22  1  0
 22 23  2  0
 23 24  1  0
 23 35  1  0
 24 25  1  0
 24 38  1  0
 25 26  2  0
 25 27  1  0
 27 28  1  0
 27 37  1  0
 28 29  2  0
 29 30  1  0
 30 31  2  0
 31 32  1  0
 32 33  1  0
 32 34  2  0
 34 28  1  0
 35 36  2  0
 36 20  1  0
M  END
> <CMPD_CHEMBLID>
CHEMBL2022856

> <STANDARD_TYPE>
Ki

> <RELATION>
=

> <STANDARD_VALUE>
0.794

> <STANDARD_UNITS>
nM

> <Molecular_Weight>
502.56322

$$$$

  SciTegic11272012012D

 25 28  0  0  0  0            999 V2000
    1.2861   -0.7425    0.0000 O   0  5
    0.7144   -0.4125    0.0000 N   0  3
    0.7144    0.4125    0.0000 C   0  0
    0.0000    0.8250    0.0000 C   0  0
    0.0000    1.6500    0.0000 C   0  0
   -0.7145    2.0625    0.0000 C   0  0
   -0.7162    2.8879    0.0000 N   0  0
   -1.4317    3.2997    0.0000 C   0  0
   -2.0027    2.9687    0.0000 O   0  0
   -1.4334    4.1251    0.0000 C   0  0
   -1.8458    4.7893    0.0000 C   0  0
   -1.0208    4.7893    0.0000 C   0  0
   -1.4290    1.6500    0.0000 N   0  0
   -1.4290    0.8250    0.0000 C   0  0
   -0.7144    0.4125    0.0000 C   0  0
   -0.7144   -0.4125    0.0000 C   0  0
    0.0000   -0.8250    0.0000 C   0  0
    0.0000   -1.6504    0.0000 C   0  0
    0.7151   -2.0618    0.0000 C   0  0
    0.7164   -2.8868    0.0000 C   0  0
    0.0026   -3.3005    0.0000 C   0  0
   -0.7125   -2.8891    0.0000 C   0  0
   -0.7138   -2.0641    0.0000 C   0  0
   -1.2859   -1.7350    0.0000 Cl  0  0
   -0.2404    3.1638    0.0000 H   0  0
  1  2  1  0
  2  3  2  0
  3  4  1  0
  4  5  2  0
  5  6  1  0
  6  7  1  0
  6 13  2  0
  7  8  1  0
  7 25  1  0
  8  9  2  0
  8 10  1  0
 10 11  1  0
 11 12  1  0
 12 10  1  0
 13 14  1  0
 14 15  2  0
 15  4  1  0
 15 16  1  0
 16 17  2  0
 17  2  1  0
 17 18  1  0
 18 19  2  0
 19 20  1  0
 20 21  2  0
 21 22  1  0
 22 23  2  0
 23 18  1  0
 23 24  1  0
M  CHG  2   1  -1   2   1
M  END
> <CMPD_CHEMBLID>
CHEMBL3689640

> <STANDARD_TYPE>
Ki

> <RELATION>
=

> <STANDARD_VALUE>
0.8

> <STANDARD_UNITS>
nM

> <Molecular_Weight>
339.77566

$$$$

  SciTegic11272012012D

 25 28  0  0  0  0            999 V2000
    2.1455    0.2461    0.0000 Cl  0  0
    2.1445   -0.4139    0.0000 C   0  0
    2.8583   -0.8275    0.0000 C   0  0
    2.8570   -1.6525    0.0000 C   0  0
    2.1419   -2.0639    0.0000 C   0  0
    1.4281   -1.6502    0.0000 C   0  0
    1.4293   -0.8252    0.0000 C   0  0
    0.7144   -0.4125    0.0000 C   0  0
    0.7144    0.4125    0.0000 C   0  0
    0.0000    0.8250    0.0000 C   0  0
    0.0000    1.6500    0.0000 C   0  0
   -0.7145    2.0625    0.0000 N   0  0
   -1.4290    1.6500    0.0000 C   0  0
   -2.1447    2.0612    0.0000 N   0  0
   -2.8590    1.6475    0.0000 C   0  0
   -2.8578    0.9875    0.0000 O   0  0
   -3.5747    2.0588    0.0000 C   0  0
   -4.3561    2.0337    0.0000 C   0  0
   -3.9436    2.7481    0.0000 C   0  0
   -1.4290    0.8250    0.0000 C   0  0
   -0.7144    0.4125    0.0000 C   0  0
   -0.7144   -0.4125    0.0000 C   0  0
   -1.2861   -0.7425    0.0000 Cl  0  0
    0.0000   -0.8250    0.0000 N   0  0
   -2.1457    2.6112    0.0000 H   0  0
  1  2  1  0
  2  3  2  0
  3  4  1  0
  4  5  2  0
  5  6  1  0
  6  7  2  0
  7  2  1  0
  7  8  1  0
  8  9  2  0
  9 10  1  0
 10 11  2  0
 11 12  1  0
 12 13  2  0
 13 14  1  0
 13 20  1  0
 14 15  1  0
 14 25  1  0
 15 16  2  0
 15 17  1  0
 17 18  1  0
 18 19  1  0
 19 17  1  0
 20 21  2  0
 21 10  1  0
 21 22  1  0
 22 23  1  0
 22 24  2  0
 24  8  1  0
M  END
> <CMPD_CHEMBLID>
CHEMBL3689635

> <STANDARD_TYPE>
Ki

> <RELATION>
=

> <STANDARD_VALUE>
0.8

> <STANDARD_UNITS>
nM

> <Molecular_Weight>
358.22132

$$$$

  SciTegic11272012012D

 34 38  0  0  0  0            999 V2000
    2.1455    0.2461    0.0000 C   0  0
    2.1445   -0.4139    0.0000 C   0  0
    2.8583   -0.8275    0.0000 C   0  0
    2.8570   -1.6525    0.0000 C   0  0
    2.1419   -2.0639    0.0000 C   0  0
    1.4281   -1.6502    0.0000 C   0  0
    1.4293   -0.8252    0.0000 C   0  0
    0.7144   -0.4125    0.0000 C   0  0
    0.7144    0.4125    0.0000 C   0  0
    0.0000    0.8250    0.0000 C   0  0
   -0.7144    0.4125    0.0000 C   0  0
   -1.4290    0.8250    0.0000 C   0  0
   -2.1434    0.4125    0.0000 C   0  0
   -2.8591    0.8237    0.0000 N   0  0
   -3.5734    0.4100    0.0000 C   0  0
   -3.5722   -0.2500    0.0000 O   0  0
   -4.2891    0.8213    0.0000 C   0  0
   -5.0706    0.7961    0.0000 C   0  0
   -4.6581    1.5106    0.0000 C   0  0
   -2.1434   -0.4125    0.0000 N   0  0
   -1.4290   -0.8250    0.0000 C   0  0
   -0.7144   -0.4125    0.0000 C   0  0
    0.0000   -0.8250    0.0000 C   0  0
    2.1388   -2.8893    0.0000 C   0  0
    2.7094   -3.2212    0.0000 O   0  0
    1.4227   -3.2999    0.0000 N   0  0
    1.4198   -4.1253    0.0000 C   0  0
    0.7046   -4.5367    0.0000 C   0  0
    0.7033   -5.3617    0.0000 C   0  0
    1.4171   -5.7754    0.0000 O   0  0
    2.1322   -5.3640    0.0000 C   0  0
    2.1336   -4.5390    0.0000 C   0  0
    0.9474   -3.0233    0.0000 H   0  0
   -2.8601    1.3737    0.0000 H   0  0
  1  2  1  0
  2  3  2  0
  3  4  1  0
  4  5  2  0
  5  6  1  0
  5 24  1  0
  6  7  2  0
  7  2  1  0
  7  8  1  0
  8  9  2  0
  9 10  1  0
 10 11  2  0
 11 12  1  0
 12 13  2  0
 13 14  1  0
 13 20  1  0
 14 15  1  0
 14 34  1  0
 15 16  2  0
 15 17  1  0
 17 18  1  0
 18 19  1  0
 19 17  1  0
 20 21  2  0
 21 22  1  0
 22 11  1  0
 22 23  2  0
 23  8  1  0
 24 25  2  0
 24 26  1  0
 26 27  1  0
 26 33  1  0
 27 28  1  0
 28 29  1  0
 29 30  1  0
 30 31  1  0
 31 32  1  0
 32 27  1  0
M  END
> <CMPD_CHEMBLID>
CHEMBL3689582

> <STANDARD_TYPE>
Ki

> <RELATION>
=

> <STANDARD_VALUE>
0.8

> <STANDARD_UNITS>
nM

> <Molecular_Weight>
429.51088

$$$$

  SciTegic11272012012D

 35 39  0  0  0  0            999 V2000
    0.1312   -5.6908    0.0000 C   0  0
    0.7033   -5.3617    0.0000 C   0  0
    0.7046   -4.5367    0.0000 C   0  0
    1.4198   -4.1253    0.0000 C   0  0
    2.1336   -4.5390    0.0000 C   0  0
    2.1322   -5.3640    0.0000 C   0  0
    1.4171   -5.7754    0.0000 N   0  0
    1.4227   -3.2999    0.0000 C   0  0
    0.8523   -2.9680    0.0000 O   0  0
    2.1388   -2.8893    0.0000 N   0  0
    2.1419   -2.0639    0.0000 C   0  0
    2.8570   -1.6525    0.0000 C   0  0
    2.8583   -0.8275    0.0000 C   0  0
    2.1445   -0.4139    0.0000 C   0  0
    2.1455    0.2461    0.0000 C   0  0
    1.4293   -0.8252    0.0000 C   0  0
    1.4281   -1.6502    0.0000 C   0  0
    0.7144   -0.4125    0.0000 C   0  0
    0.7144    0.4125    0.0000 C   0  0
    0.0000    0.8250    0.0000 C   0  0
   -0.7144    0.4125    0.0000 C   0  0
   -1.4290    0.8250    0.0000 C   0  0
   -2.1434    0.4125    0.0000 C   0  0
   -2.8591    0.8237    0.0000 N   0  0
   -3.5734    0.4100    0.0000 C   0  0
   -3.5722   -0.2500    0.0000 O   0  0
   -4.2891    0.8213    0.0000 C   0  0
   -5.0706    0.7961    0.0000 C   0  0
   -4.6581    1.5106    0.0000 C   0  0
   -2.1434   -0.4125    0.0000 N   0  0
   -1.4290   -0.8250    0.0000 C   0  0
   -0.7144   -0.4125    0.0000 C   0  0
    0.0000   -0.8250    0.0000 C   0  0
   -2.8601    1.3737    0.0000 H   0  0
    2.6143   -3.1659    0.0000 H   0  0
  1  2  1  0
  2  3  2  0
  3  4  1  0
  4  5  2  0
  4  8  1  0
  5  6  1  0
  6  7  2  0
  7  2  1  0
  8  9  2  0
  8 10  1  0
 10 11  1  0
 10 35  1  0
 11 12  2  0
 12 13  1  0
 13 14  2  0
 14 15  1  0
 14 16  1  0
 16 17  2  0
 16 18  1  0
 17 11  1  0
 18 19  2  0
 19 20  1  0
 20 21  2  0
 21 22  1  0
 22 23  2  0
 23 24  1  0
 23 30  1  0
 24 25  1  0
 24 34  1  0
 25 26  2  0
 25 27  1  0
 27 28  1  0
 28 29  1  0
 29 27  1  0
 30 31  2  0
 31 32  1  0
 32 21  1  0
 32 33  2  0
 33 18  1  0
M  END
> <CMPD_CHEMBLID>
CHEMBL3685173

> <STANDARD_TYPE>
Ki

> <RELATION>
=

> <STANDARD_VALUE>
0.8

> <STANDARD_UNITS>
nM

> <Molecular_Weight>
436.50506

$$$$

  SciTegic11272012012D

 21 23  0  0  0  0            999 V2000
    1.9982   -1.9833    0.0000 C   0  0
    1.4273   -1.6522    0.0000 C   0  0
    0.8552   -1.9812    0.0000 C   0  0
    1.4285   -0.8267    0.0000 O   0  0
    0.7145   -0.4125    0.0000 C   0  0
    0.7145    0.4125    0.0000 C   0  0
    0.0000    0.8250    0.0000 C   0  0
   -0.7145    0.4125    0.0000 C   0  0
   -1.4290    0.8250    0.0000 C   0  0
   -2.1435    0.4125    0.0000 C   0  0
   -2.8592    0.8238    0.0000 N   0  0
   -3.5735    0.4100    0.0000 C   0  0
   -3.5723   -0.2500    0.0000 O   0  0
   -4.2892    0.8213    0.0000 C   0  0
   -5.0707    0.7961    0.0000 C   0  0
   -4.6582    1.5106    0.0000 C   0  0
   -2.1435   -0.4125    0.0000 N   0  0
   -1.4290   -0.8250    0.0000 C   0  0
   -0.7145   -0.4125    0.0000 C   0  0
    0.0000   -0.8250    0.0000 C   0  0
   -2.8602    1.3738    0.0000 H   0  0
  1  2  1  0
  2  3  1  0
  2  4  1  0
  4  5  1  0
  5  6  2  0
  6  7  1  0
  7  8  2  0
  8  9  1  0
  9 10  2  0
 10 11  1  0
 10 17  1  0
 11 12  1  0
 11 21  1  0
 12 13  2  0
 12 14  1  0
 14 15  1  0
 15 16  1  0
 16 14  1  0
 17 18  2  0
 18 19  1  0
 19  8  1  0
 19 20  2  0
 20  5  1  0
M  END
> <CMPD_CHEMBLID>
CHEMBL3685092

> <STANDARD_TYPE>
Ki

> <RELATION>
=

> <STANDARD_VALUE>
0.8

> <STANDARD_UNITS>
nM

> <Molecular_Weight>
270.32632

$$$$

  SciTegic11272012012D

 27 30  0  0  0  0            999 V2000
    1.4227   -3.2999    0.0000 O   0  0
    2.1388   -2.8893    0.0000 C   0  0
    2.1419   -2.0639    0.0000 C   0  0
    2.8570   -1.6525    0.0000 C   0  0
    2.8583   -0.8275    0.0000 C   0  0
    2.1445   -0.4139    0.0000 C   0  0
    2.1455    0.2461    0.0000 F   0  0
    1.4293   -0.8252    0.0000 C   0  0
    1.4281   -1.6502    0.0000 C   0  0
    0.7144   -0.4125    0.0000 C   0  0
    0.7144    0.4125    0.0000 C   0  0
    0.0000    0.8250    0.0000 C   0  0
   -0.7144    0.4125    0.0000 C   0  0
   -1.4290    0.8250    0.0000 C   0  0
   -2.1434    0.4125    0.0000 C   0  0
   -2.8591    0.8237    0.0000 N   0  0
   -3.5734    0.4100    0.0000 C   0  0
   -3.5722   -0.2500    0.0000 O   0  0
   -4.2891    0.8213    0.0000 C   0  0
   -5.0706    0.7961    0.0000 C   0  0
   -4.6581    1.5106    0.0000 C   0  0
   -2.1434   -0.4125    0.0000 N   0  0
   -1.4290   -0.8250    0.0000 C   0  0
   -0.7144   -0.4125    0.0000 C   0  0
    0.0000   -0.8250    0.0000 C   0  0
   -2.8601    1.3737    0.0000 H   0  0
    1.4208   -3.8499    0.0000 H   0  0
  1  2  1  0
  1 27  1  0
  2  3  1  0
  3  4  2  0
  4  5  1  0
  5  6  2  0
  6  7  1  0
  6  8  1  0
  8  9  2  0
  8 10  1  0
  9  3  1  0
 10 11  2  0
 11 12  1  0
 12 13  2  0
 13 14  1  0
 14 15  2  0
 15 16  1  0
 15 22  1  0
 16 17  1  0
 16 26  1  0
 17 18  2  0
 17 19  1  0
 19 20  1  0
 20 21  1  0
 21 19  1  0
 22 23  2  0
 23 24  1  0
 24 13  1  0
 24 25  2  0
 25 10  1  0
M  END
> <CMPD_CHEMBLID>
CHEMBL3685163

> <STANDARD_TYPE>
Ki

> <RELATION>
=

> <STANDARD_VALUE>
0.8

> <STANDARD_UNITS>
nM

> <Molecular_Weight>
336.35958

$$$$

  SciTegic11272012012D

 26 29  0  0  0  0            999 V2000
    2.1456    0.2461    0.0000 C   0  0
    2.1445   -0.4139    0.0000 C   0  0
    2.8583   -0.8275    0.0000 C   0  0
    2.8570   -1.6525    0.0000 C   0  0
    2.1419   -2.0639    0.0000 C   0  0
    2.1408   -2.7239    0.0000 F   0  0
    1.4281   -1.6502    0.0000 C   0  0
    1.4293   -0.8252    0.0000 C   0  0
    0.7145   -0.4125    0.0000 C   0  0
    0.7145    0.4125    0.0000 C   0  0
    0.0000    0.8250    0.0000 C   0  0
   -0.7145    0.4125    0.0000 C   0  0
   -1.4290    0.8250    0.0000 C   0  0
   -1.4290    1.4850    0.0000 Br  0  0
   -2.1434    0.4125    0.0000 C   0  0
   -2.8592    0.8237    0.0000 N   0  0
   -3.5735    0.4100    0.0000 C   0  0
   -3.5723   -0.2500    0.0000 O   0  0
   -4.2892    0.8213    0.0000 C   0  0
   -5.0706    0.7961    0.0000 C   0  0
   -4.6581    1.5106    0.0000 C   0  0
   -2.1434   -0.4125    0.0000 N   0  0
   -1.4290   -0.8250    0.0000 C   0  0
   -0.7145   -0.4125    0.0000 C   0  0
    0.0000   -0.8250    0.0000 C   0  0
   -2.8601    1.3738    0.0000 H   0  0
  1  2  1  0
  2  3  2  0
  3  4  1  0
  4  5  2  0
  5  6  1  0
  5  7  1  0
  7  8  2  0
  8  2  1  0
  8  9  1  0
  9 10  2  0
 10 11  1  0
 11 12  2  0
 12 13  1  0
 13 14  1  0
 13 15  2  0
 15 16  1  0
 15 22  1  0
 16 17  1  0
 16 26  1  0
 17 18  2  0
 17 19  1  0
 19 20  1  0
 20 21  1  0
 21 19  1  0
 22 23  2  0
 23 24  1  0
 24 12  1  0
 24 25  2  0
 25  9  1  0
M  END
> <CMPD_CHEMBLID>
CHEMBL3685103

> <STANDARD_TYPE>
Ki

> <RELATION>
=

> <STANDARD_VALUE>
0.9

> <STANDARD_UNITS>
nM

> <Molecular_Weight>
399.25624

$$$$

  SciTegic11272012012D

 26 29  0  0  0  0            999 V2000
    2.1455    0.2461    0.0000 C   0  0
    2.1445   -0.4139    0.0000 C   0  0
    2.8583   -0.8275    0.0000 C   0  0
    2.8570   -1.6525    0.0000 C   0  0
    2.1419   -2.0639    0.0000 C   0  0
    2.1408   -2.7239    0.0000 F   0  0
    1.4281   -1.6502    0.0000 C   0  0
    1.4293   -0.8252    0.0000 C   0  0
    0.7144   -0.4125    0.0000 C   0  0
    0.7144    0.4125    0.0000 C   0  0
    0.0000    0.8250    0.0000 C   0  0
   -0.7144    0.4125    0.0000 C   0  0
   -1.4290    0.8250    0.0000 C   0  0
   -2.1434    0.4125    0.0000 C   0  0
   -2.8591    0.8237    0.0000 N   0  0
   -3.5734    0.4100    0.0000 C   0  0
   -3.5722   -0.2500    0.0000 O   0  0
   -4.2891    0.8213    0.0000 C   0  0
   -5.0034    0.4075    0.0000 C   0  0
   -5.7850    0.4299    0.0000 C   0  0
   -5.3699   -0.2831    0.0000 C   0  0
   -2.1434   -0.4125    0.0000 N   0  0
   -1.4290   -0.8250    0.0000 C   0  0
   -0.7144   -0.4125    0.0000 C   0  0
    0.0000   -0.8250    0.0000 C   0  0
   -2.8601    1.3737    0.0000 H   0  0
  1  2  1  0
  2  3  2  0
  3  4  1  0
  4  5  2  0
  5  6  1  0
  5  7  1  0
  7  8  2  0
  8  2  1  0
  8  9  1  0
  9 10  2  0
 10 11  1  0
 11 12  2  0
 12 13  1  0
 13 14  2  0
 14 15  1  0
 14 22  1  0
 15 16  1  0
 15 26  1  0
 16 17  2  0
 16 18  1  0
 18 19  1  0
 19 20  1  0
 20 21  1  0
 21 19  1  0
 22 23  2  0
 23 24  1  0
 24 12  1  0
 24 25  2  0
 25  9  1  0
M  END
> <CMPD_CHEMBLID>
CHEMBL3685118

> <STANDARD_TYPE>
Ki

> <RELATION>
=

> <STANDARD_VALUE>
0.9

> <STANDARD_UNITS>
nM

> <Molecular_Weight>
334.38676

$$$$

  SciTegic11272012012D

 26 29  0  0  0  0            999 V2000
    2.1408   -2.7239    0.0000 F   0  0
    2.1419   -2.0639    0.0000 C   0  0
    2.8570   -1.6525    0.0000 C   0  0
    2.8583   -0.8275    0.0000 N   0  0
    2.1445   -0.4139    0.0000 C   0  0
    2.1458    0.4116    0.0000 C   0  0
    2.1469    1.0716    0.0000 N   0  0
    1.4293   -0.8252    0.0000 C   0  0
    1.4281   -1.6502    0.0000 C   0  0
    0.7144   -0.4125    0.0000 C   0  0
    0.7144    0.4125    0.0000 C   0  0
    0.0000    0.8250    0.0000 C   0  0
   -0.7144    0.4125    0.0000 C   0  0
   -1.4290    0.8250    0.0000 C   0  0
   -2.1434    0.4125    0.0000 C   0  0
   -2.8591    0.8237    0.0000 N   0  0
   -3.5734    0.4100    0.0000 C   0  0
   -3.5722   -0.2500    0.0000 O   0  0
   -4.2891    0.8213    0.0000 C   0  0
   -5.0706    0.7961    0.0000 C   0  0
   -4.6581    1.5106    0.0000 C   0  0
   -2.1434   -0.4125    0.0000 N   0  0
   -1.4290   -0.8250    0.0000 C   0  0
   -0.7144   -0.4125    0.0000 C   0  0
    0.0000   -0.8250    0.0000 C   0  0
   -2.8601    1.3737    0.0000 H   0  0
  1  2  1  0
  2  3  2  0
  3  4  1  0
  4  5  2  0
  5  6  1  0
  5  8  1  0
  6  7  3  0
  8  9  2  0
  8 10  1  0
  9  2  1  0
 10 11  2  0
 11 12  1  0
 12 13  2  0
 13 14  1  0
 14 15  2  0
 15 16  1  0
 15 22  1  0
 16 17  1  0
 16 26  1  0
 17 18  2  0
 17 19  1  0
 19 20  1  0
 20 21  1  0
 21 19  1  0
 22 23  2  0
 23 24  1  0
 24 13  1  0
 24 25  2  0
 25 10  1  0
M  END
> <CMPD_CHEMBLID>
CHEMBL3685014

> <STANDARD_TYPE>
Ki

> <RELATION>
=

> <STANDARD_VALUE>
0.9

> <STANDARD_UNITS>
nM

> <Molecular_Weight>
332.33112

$$$$

  SciTegic11272012012D

 29 32  0  0  0  0            999 V2000
    2.1456    0.2461    0.0000 C   0  0
    2.1445   -0.4139    0.0000 C   0  0
    2.8583   -0.8275    0.0000 C   0  0
    2.8570   -1.6525    0.0000 C   0  0
    2.1419   -2.0639    0.0000 C   0  0
    1.4281   -1.6502    0.0000 C   0  0
    1.4293   -0.8252    0.0000 C   0  0
    0.7145   -0.4125    0.0000 C   0  0
    0.7145    0.4125    0.0000 C   0  0
    0.0000    0.8250    0.0000 C   0  0
   -0.7145    0.4125    0.0000 C   0  0
   -1.4290    0.8250    0.0000 C   0  0
   -2.1434    0.4125    0.0000 C   0  0
   -2.8592    0.8237    0.0000 N   0  0
   -3.5735    0.4100    0.0000 C   0  0
   -3.5723   -0.2500    0.0000 O   0  0
   -4.2892    0.8213    0.0000 C   0  0
   -5.0706    0.7961    0.0000 C   0  0
   -4.6581    1.5106    0.0000 C   0  0
   -2.1434   -0.4125    0.0000 N   0  0
   -1.4290   -0.8250    0.0000 C   0  0
   -0.7145   -0.4125    0.0000 C   0  0
    0.0000   -0.8250    0.0000 C   0  0
    2.1389   -2.8894    0.0000 C   0  0
    2.7094   -3.2213    0.0000 O   0  0
    1.4228   -3.2999    0.0000 N   0  0
    1.4208   -3.8499    0.0000 H   0  0
    0.9474   -3.0233    0.0000 H   0  0
   -2.8601    1.3738    0.0000 H   0  0
  1  2  1  0
  2  3  2  0
  3  4  1  0
  4  5  2  0
  5  6  1  0
  5 24  1  0
  6  7  2  0
  7  2  1  0
  7  8  1  0
  8  9  2  0
  9 10  1  0
 10 11  2  0
 11 12  1  0
 12 13  2  0
 13 14  1  0
 13 20  1  0
 14 15  1  0
 14 29  1  0
 15 16  2  0
 15 17  1  0
 17 18  1  0
 18 19  1  0
 19 17  1  0
 20 21  2  0
 21 22  1  0
 22 11  1  0
 22 23  2  0
 23  8  1  0
 24 25  2  0
 24 26  1  0
 26 27  1  0
 26 28  1  0
M  END
> <CMPD_CHEMBLID>
CHEMBL3685098

> <STANDARD_TYPE>
Ki

> <RELATION>
=

> <STANDARD_VALUE>
0.9

> <STANDARD_UNITS>
nM

> <Molecular_Weight>
345.39446

$$$$

  SciTegic11272012012D

 33 37  0  0  0  0            999 V2000
    2.1456    0.2461    0.0000 C   0  0
    2.1446   -0.4139    0.0000 C   0  0
    2.8584   -0.8275    0.0000 C   0  0
    2.8570   -1.6525    0.0000 C   0  0
    2.1419   -2.0639    0.0000 C   0  0
    1.4281   -1.6503    0.0000 C   0  0
    1.4293   -0.8252    0.0000 C   0  0
    0.7145   -0.4125    0.0000 C   0  0
    0.7145    0.4125    0.0000 C   0  0
    0.0000    0.8250    0.0000 C   0  0
   -0.7145    0.4125    0.0000 C   0  0
   -1.4290    0.8250    0.0000 C   0  0
   -2.1435    0.4125    0.0000 C   0  0
   -2.8592    0.8238    0.0000 N   0  0
   -3.5735    0.4100    0.0000 C   0  0
   -3.5723   -0.2500    0.0000 O   0  0
   -4.2892    0.8213    0.0000 C   0  0
   -5.0707    0.7961    0.0000 C   0  0
   -4.6582    1.5106    0.0000 C   0  0
   -2.1435   -0.4125    0.0000 N   0  0
   -1.4290   -0.8250    0.0000 C   0  0
   -0.7145   -0.4125    0.0000 C   0  0
    0.0000   -0.8250    0.0000 C   0  0
    2.1389   -2.8894    0.0000 C   0  0
    2.7094   -3.2213    0.0000 O   0  0
    1.4228   -3.3000    0.0000 N   0  0
    1.4198   -4.1254    0.0000 C   0  0
    0.7516   -4.5973    0.0000 C   0  0
    1.0053   -5.3823    0.0000 C   0  0
    1.8303   -5.3836    0.0000 O   0  0
    2.0865   -4.5994    0.0000 C   0  0
    0.9474   -3.0234    0.0000 H   0  0
   -2.8602    1.3738    0.0000 H   0  0
  1  2  1  0
  2  3  2  0
  3  4  1  0
  4  5  2  0
  5  6  1  0
  5 24  1  0
  6  7  2  0
  7  2  1  0
  7  8  1  0
  8  9  2  0
  9 10  1  0
 10 11  2  0
 11 12  1  0
 12 13  2  0
 13 14  1  0
 13 20  1  0
 14 15  1  0
 14 33  1  0
 15 16  2  0
 15 17  1  0
 17 18  1  0
 18 19  1  0
 19 17  1  0
 20 21  2  0
 21 22  1  0
 22 11  1  0
 22 23  2  0
 23  8  1  0
 24 25  2  0
 24 26  1  0
 26 27  1  0
 26 32  1  0
 27 28  1  0
 28 29  1  0
 29 30  1  0
 30 31  1  0
 31 27  1  0
M  END
> <CMPD_CHEMBLID>
CHEMBL3689613

> <STANDARD_TYPE>
Ki

> <RELATION>
=

> <STANDARD_VALUE>
0.9

> <STANDARD_UNITS>
nM

> <Molecular_Weight>
415.4843

$$$$

  SciTegic11272012012D

 27 30  0  0  0  0            999 V2000
    2.1456    0.2461    0.0000 C   0  0
    2.1446   -0.4139    0.0000 C   0  0
    2.8584   -0.8275    0.0000 C   0  0
    2.8570   -1.6525    0.0000 C   0  0
    3.5704   -2.0679    0.0000 N   0  0
    2.1419   -2.0639    0.0000 N   0  0
    1.4281   -1.6503    0.0000 C   0  0
    1.4293   -0.8252    0.0000 C   0  0
    0.7145   -0.4125    0.0000 C   0  0
    0.7145    0.4125    0.0000 C   0  0
    0.0000    0.8250    0.0000 C   0  0
   -0.7145    0.4125    0.0000 C   0  0
   -1.4290    0.8250    0.0000 C   0  0
   -2.1435    0.4125    0.0000 C   0  0
   -2.8592    0.8238    0.0000 N   0  0
   -3.5735    0.4100    0.0000 C   0  0
   -3.5723   -0.2500    0.0000 O   0  0
   -4.2892    0.8213    0.0000 C   0  0
   -5.0707    0.7961    0.0000 C   0  0
   -4.6582    1.5106    0.0000 C   0  0
   -2.1435   -0.4125    0.0000 N   0  0
   -1.4290   -0.8250    0.0000 C   0  0
   -0.7145   -0.4125    0.0000 C   0  0
    0.0000   -0.8250    0.0000 C   0  0
   -2.8602    1.3738    0.0000 H   0  0
    3.5688   -2.6179    0.0000 H   0  0
    4.0476   -1.7945    0.0000 H   0  0
  1  2  1  0
  2  3  2  0
  3  4  1  0
  4  5  1  0
  4  6  2  0
  5 26  1  0
  5 27  1  0
  6  7  1  0
  7  8  2  0
  8  2  1  0
  8  9  1  0
  9 10  2  0
 10 11  1  0
 11 12  2  0
 12 13  1  0
 13 14  2  0
 14 15  1  0
 14 21  1  0
 15 16  1  0
 15 25  1  0
 16 17  2  0
 16 18  1  0
 18 19  1  0
 19 20  1  0
 20 18  1  0
 21 22  2  0
 22 23  1  0
 23 12  1  0
 23 24  2  0
 24  9  1  0
M  END
> <CMPD_CHEMBLID>
CHEMBL3685154

> <STANDARD_TYPE>
Ki

> <RELATION>
=

> <STANDARD_VALUE>
0.9

> <STANDARD_UNITS>
nM

> <Molecular_Weight>
318.37242

$$$$

  SciTegic11272012012D

 26 29  0  0  0  0            999 V2000
    2.1408   -2.7239    0.0000 Cl  0  0
    2.1419   -2.0639    0.0000 C   0  0
    2.8570   -1.6525    0.0000 C   0  0
    2.8583   -0.8275    0.0000 C   0  0
    2.1445   -0.4139    0.0000 C   0  0
    2.1458    0.4116    0.0000 C   0  0
    2.1469    1.0716    0.0000 N   0  0
    1.4293   -0.8252    0.0000 C   0  0
    1.4281   -1.6502    0.0000 C   0  0
    0.7144   -0.4125    0.0000 C   0  0
    0.7144    0.4125    0.0000 C   0  0
    0.0000    0.8250    0.0000 C   0  0
   -0.7144    0.4125    0.0000 C   0  0
   -1.4290    0.8250    0.0000 C   0  0
   -2.1434    0.4125    0.0000 C   0  0
   -2.8591    0.8237    0.0000 N   0  0
   -3.5734    0.4100    0.0000 C   0  0
   -3.5722   -0.2500    0.0000 O   0  0
   -4.2891    0.8213    0.0000 C   0  0
   -5.0706    0.7961    0.0000 C   0  0
   -4.6581    1.5106    0.0000 C   0  0
   -2.1434   -0.4125    0.0000 N   0  0
   -1.4290   -0.8250    0.0000 C   0  0
   -0.7144   -0.4125    0.0000 C   0  0
    0.0000   -0.8250    0.0000 C   0  0
   -2.8601    1.3737    0.0000 H   0  0
  1  2  1  0
  2  3  2  0
  3  4  1  0
  4  5  2  0
  5  6  1  0
  5  8  1  0
  6  7  3  0
  8  9  2  0
  8 10  1  0
  9  2  1  0
 10 11  2  0
 11 12  1  0
 12 13  2  0
 13 14  1  0
 14 15  2  0
 15 16  1  0
 15 22  1  0
 16 17  1  0
 16 26  1  0
 17 18  2  0
 17 19  1  0
 19 20  1  0
 20 21  1  0
 21 19  1  0
 22 23  2  0
 23 24  1  0
 24 13  1  0
 24 25  2  0
 25 10  1  0
M  END
> <CMPD_CHEMBLID>
CHEMBL3685067

> <STANDARD_TYPE>
Ki

> <RELATION>
=

> <STANDARD_VALUE>
0.9

> <STANDARD_UNITS>
nM

> <Molecular_Weight>
347.79766

$$$$

  SciTegic11272012012D

 33 37  0  0  0  0            999 V2000
    3.4250   -3.7721    0.0000 C   0  0
    2.9220   -3.3449    0.0000 O   0  0
    2.1445   -3.6220    0.0000 C   0  0
    1.9965   -4.4336    0.0000 C   0  0
    1.2197   -4.7113    0.0000 C   0  0
    0.5907   -4.1774    0.0000 C   0  0
    0.7387   -3.3658    0.0000 C   0  0
    1.5173   -3.0902    0.0000 C   0  0
    1.6038   -2.2693    0.0000 N   0  0
    0.9909   -1.7170    0.0000 C   0  0
    1.3268   -0.9635    0.0000 C   0  0
    2.1461   -1.0504    0.0000 N   0  0
    2.8605   -0.6385    0.0000 C   0  0
    3.0323    0.1684    0.0000 C   0  0
    2.5421    0.6102    0.0000 O   0  0
    3.8171    0.4229    0.0000 N   0  0
    4.4299   -0.1294    0.0000 C   0  0
    5.0577    0.0743    0.0000 O   0  0
    4.2581   -0.9363    0.0000 N   0  0
    4.7483   -1.3781    0.0000 C   0  0
    3.4733   -1.1908    0.0000 C   0  0
    3.1377   -1.9440    0.0000 N   0  0
    2.3173   -1.8574    0.0000 C   0  0
    0.1835   -1.8883    0.0000 C   0  0
   -0.3191   -1.2329    0.0000 C   0  0
   -1.1367   -1.3428    0.0000 C   0  0
   -1.6423   -0.6904    0.0000 O   0  0
   -1.4503   -2.1059    0.0000 C   0  0
   -0.9462   -2.7590    0.0000 C   0  0
   -0.1286   -2.6491    0.0000 C   0  0
    0.2076   -3.0843    0.0000 C   0  0
   -2.1873   -0.7645    0.0000 H   0  0
    3.9317    0.9609    0.0000 H   0  0
  1  2  1  0
  2  3  1  0
  3  4  2  0
  4  5  1  0
  5  6  2  0
  6  7  1  0
  7  8  2  0
  8  3  1  0
  8  9  1  0
  9 10  1  0
 10 11  2  0
 10 24  1  0
 11 12  1  0
 12 13  1  0
 13 14  1  0
 14 15  2  0
 14 16  1  0
 16 17  1  0
 16 33  1  0
 17 18  2  0
 17 19  1  0
 19 20  1  0
 19 21  1  0
 21 13  2  0
 21 22  1  0
 22 23  2  0
 23  9  1  0
 23 12  1  0
 24 25  2  0
 25 26  1  0
 26 27  1  0
 26 28  2  0
 27 32  1  0
 28 29  1  0
 29 30  2  0
 30 24  1  0
 30 31  1  0
M  END
> <CMPD_CHEMBLID>
CHEMBL566515

> <STANDARD_TYPE>
IC50

> <RELATION>
=

> <STANDARD_VALUE>
0.92

> <STANDARD_UNITS>
nM

> <Molecular_Weight>
417.41736

$$$$

  SciTegic11272012012D

 42 46  0  0  0  0            999 V2000
    4.1473   -0.0835    0.0000 C   0  0
    3.5752   -0.4127    0.0000 C   0  0
    3.5735   -1.2382    0.0000 C   0  0
    4.2880   -1.6507    0.0000 C   0  0
    4.2880   -2.4757    0.0000 C   0  0
    3.5735   -2.8882    0.0000 C   0  0
    2.8591   -2.4757    0.0000 C   0  0
    2.8591   -1.6507    0.0000 C   0  0
    2.1442   -1.2379    0.0000 C   0  0
    1.4293   -0.8252    0.0000 C   0  0
    0.7144   -0.4125    0.0000 C   0  0
    0.7144    0.4125    0.0000 C   0  0
    0.0000    0.8250    0.0000 N   0  0
   -0.7144    0.4125    0.0000 C   0  0
   -1.4986    0.6674    0.0000 N   0  0
   -1.9836    0.0000    0.0000 N   0  0
   -1.4986   -0.6674    0.0000 C   0  0
   -0.7144   -0.4125    0.0000 C   0  0
    0.0000   -0.8250    0.0000 C   0  0
    3.5719   -3.7137    0.0000 C   0  0
    4.1428   -4.0446    0.0000 O   0  0
    2.8564   -4.1253    0.0000 N   0  0
    2.8547   -4.9508    0.0000 C   0  0
    2.1402   -5.3633    0.0000 C   0  0
    2.1402   -6.1883    0.0000 C   0  0
    2.8547   -6.6008    0.0000 C   0  0
    2.8530   -7.4263    0.0000 C   0  0
    2.1375   -7.8380    0.0000 N   0  0
    2.1345   -8.6630    0.0000 C   0  0
    1.4187   -9.0730    0.0000 C   0  0
    0.7056   -8.6580    0.0000 N   0  0
    0.1329   -8.9861    0.0000 C   0  0
    0.7085   -7.8330    0.0000 C   0  0
    1.4244   -7.4230    0.0000 C   0  0
    3.5692   -6.1884    0.0000 C   0  0
    3.5692   -5.3634    0.0000 C   0  0
    4.2840   -6.6011    0.0000 C   0  0
    4.2844   -7.2611    0.0000 F   0  0
    4.8555   -6.2709    0.0000 F   0  0
    4.8557   -6.9308    0.0000 F   0  0
    2.3806   -3.8495    0.0000 H   0  0
   -1.6685    1.1905    0.0000 H   0  0
  1  2  1  0
  2  3  1  0
  3  4  2  0
  4  5  1  0
  5  6  2  0
  6  7  1  0
  6 20  1  0
  7  8  2  0
  8  3  1  0
  8  9  1  0
  9 10  3  0
 10 11  1  0
 11 12  2  0
 12 13  1  0
 13 14  2  0
 14 15  1  0
 15 16  1  0
 15 42  1  0
 16 17  2  0
 17 18  1  0
 18 14  1  0
 18 19  2  0
 19 11  1  0
 20 21  2  0
 20 22  1  0
 22 23  1  0
 22 41  1  0
 23 24  2  0
 24 25  1  0
 25 26  2  0
 26 27  1  0
 26 35  1  0
 27 28  1  0
 28 29  1  0
 29 30  1  0
 30 31  1  0
 31 32  1  0
 31 33  1  0
 33 34  1  0
 34 28  1  0
 35 36  2  0
 35 37  1  0
 36 23  1  0
 37 38  1  0
 37 39  1  0
 37 40  1  0
M  END
> <CMPD_CHEMBLID>
CHEMBL2316584

> <STANDARD_TYPE>
IC50

> <RELATION>
=

> <STANDARD_VALUE>
0.94

> <STANDARD_UNITS>
nM

> <Molecular_Weight>
546.58607

$$$$

  SciTegic11272012012D

 27 29  0  0  0  0            999 V2000
    2.7111   -3.2230    0.0000 C   0  0
    2.1402   -2.8918    0.0000 C   0  0
    1.5680   -3.2208    0.0000 C   0  0
    2.1413   -2.0663    0.0000 N   0  0
    1.4273   -1.6521    0.0000 C   0  0
    0.8551   -1.9812    0.0000 O   0  0
    1.4285   -0.8267    0.0000 N   0  0
    0.7144   -0.4125    0.0000 C   0  0
    0.7144    0.4125    0.0000 C   0  0
    0.0000    0.8250    0.0000 C   0  0
    0.0000    1.6500    0.0000 C   0  0
   -0.7145    2.0625    0.0000 C   0  0
   -1.4290    1.6500    0.0000 C   0  0
   -1.4290    0.8250    0.0000 C   0  0
   -0.7144    0.4125    0.0000 C   0  0
   -0.7144   -0.4125    0.0000 C   0  0
    0.0000   -0.8250    0.0000 N   0  0
   -2.1438    2.0627    0.0000 C   0  0
   -2.8576    1.6491    0.0000 C   0  0
   -3.5728    2.0605    0.0000 C   0  0
   -4.1438    1.7295    0.0000 F   0  0
   -3.5741    2.8855    0.0000 C   0  0
   -2.8603    3.2991    0.0000 C   0  0
   -2.1452    2.8877    0.0000 C   0  0
   -1.5741    3.2187    0.0000 C   0  0
    1.9053   -0.5525    0.0000 H   0  0
    2.6181   -1.7922    0.0000 H   0  0
  1  2  1  0
  2  3  1  0
  2  4  1  0
  4  5  1  0
  4 27  1  0
  5  6  2  0
  5  7  1  0
  7  8  1  0
  7 26  1  0
  8  9  2  0
  9 10  1  0
 10 11  2  0
 11 12  1  0
 12 13  2  0
 13 14  1  0
 13 18  1  0
 14 15  2  0
 15 10  1  0
 15 16  1  0
 16 17  2  0
 17  8  1  0
 18 19  2  0
 19 20  1  0
 20 21  1  0
 20 22  2  0
 22 23  1  0
 23 24  2  0
 24 18  1  0
 24 25  1  0
M  END
> <CMPD_CHEMBLID>
CHEMBL3685123

> <STANDARD_TYPE>
Ki

> <RELATION>
=

> <STANDARD_VALUE>
1

> <STANDARD_UNITS>
nM

> <Molecular_Weight>
337.3907

$$$$

  SciTegic11272012012D

 33 37  0  0  0  0            999 V2000
    2.1456    0.2461    0.0000 C   0  0
    2.1445   -0.4139    0.0000 C   0  0
    2.8583   -0.8275    0.0000 C   0  0
    3.4305   -0.4984    0.0000 F   0  0
    2.8570   -1.6525    0.0000 C   0  0
    2.1419   -2.0639    0.0000 C   0  0
    1.4281   -1.6502    0.0000 C   0  0
    1.4293   -0.8252    0.0000 C   0  0
    0.7145   -0.4125    0.0000 C   0  0
    0.7145    0.4125    0.0000 C   0  0
    0.0000    0.8250    0.0000 C   0  0
   -0.7145    0.4125    0.0000 C   0  0
   -1.4290    0.8250    0.0000 C   0  0
   -2.1434    0.4125    0.0000 C   0  0
   -2.8592    0.8237    0.0000 N   0  0
   -3.5735    0.4100    0.0000 C   0  0
   -3.5723   -0.2500    0.0000 O   0  0
   -4.2892    0.8213    0.0000 C   0  0
   -5.0706    0.7961    0.0000 C   0  0
   -4.6581    1.5106    0.0000 C   0  0
   -2.1434   -0.4125    0.0000 N   0  0
   -1.4290   -0.8250    0.0000 C   0  0
   -0.7145   -0.4125    0.0000 C   0  0
    0.0000   -0.8250    0.0000 C   0  0
    2.1389   -2.8894    0.0000 C   0  0
    2.7094   -3.2213    0.0000 O   0  0
    1.4228   -3.2999    0.0000 N   0  0
    1.4198   -4.1254    0.0000 C   0  0
    0.8355   -4.6794    0.0000 C   0  0
    1.4180   -5.2637    0.0000 O   0  0
    2.0023   -4.6813    0.0000 C   0  0
    0.9474   -3.0233    0.0000 H   0  0
   -2.8601    1.3738    0.0000 H   0  0
  1  2  1  0
  2  3  2  0
  3  4  1  0
  3  5  1  0
  5  6  2  0
  6  7  1  0
  6 25  1  0
  7  8  2  0
  8  2  1  0
  8  9  1  0
  9 10  2  0
 10 11  1  0
 11 12  2  0
 12 13  1  0
 13 14  2  0
 14 15  1  0
 14 21  1  0
 15 16  1  0
 15 33  1  0
 16 17  2  0
 16 18  1  0
 18 19  1  0
 19 20  1  0
 20 18  1  0
 21 22  2  0
 22 23  1  0
 23 12  1  0
 23 24  2  0
 24  9  1  0
 25 26  2  0
 25 27  1  0
 27 28  1  0
 27 32  1  0
 28 29  1  0
 29 30  1  0
 30 31  1  0
 31 28  1  0
M  END
> <CMPD_CHEMBLID>
CHEMBL3689623

> <STANDARD_TYPE>
Ki

> <RELATION>
=

> <STANDARD_VALUE>
1

> <STANDARD_UNITS>
nM

> <Molecular_Weight>
419.44818

$$$$

  SciTegic11272012012D

 33 37  0  0  0  0            999 V2000
    0.8560   -1.9794    0.0000 C   0  0
    1.4281   -1.6503    0.0000 C   0  0
    2.1419   -2.0639    0.0000 C   0  0
    2.8570   -1.6525    0.0000 C   0  0
    2.8584   -0.8275    0.0000 C   0  0
    3.5747   -0.4174    0.0000 C   0  0
    3.5769    0.2426    0.0000 O   0  0
    4.2884   -0.8323    0.0000 N   0  0
    5.0048   -0.4221    0.0000 C   0  0
    5.7767   -0.6510    0.0000 C   0  0
    5.9914    0.1455    0.0000 O   0  0
    5.1949    0.3603    0.0000 C   0  0
    2.1446   -0.4139    0.0000 C   0  0
    2.1456    0.2461    0.0000 F   0  0
    1.4293   -0.8252    0.0000 C   0  0
    0.7145   -0.4125    0.0000 C   0  0
    0.7145    0.4125    0.0000 C   0  0
    0.0000    0.8250    0.0000 C   0  0
   -0.7145    0.4125    0.0000 C   0  0
   -1.4290    0.8250    0.0000 C   0  0
   -2.1435    0.4125    0.0000 C   0  0
   -2.8592    0.8238    0.0000 N   0  0
   -3.5735    0.4100    0.0000 C   0  0
   -3.5723   -0.2500    0.0000 O   0  0
   -4.2892    0.8213    0.0000 C   0  0
   -5.0707    0.7961    0.0000 C   0  0
   -4.6582    1.5106    0.0000 C   0  0
   -2.1435   -0.4125    0.0000 N   0  0
   -1.4290   -0.8250    0.0000 C   0  0
   -0.7145   -0.4125    0.0000 C   0  0
    0.0000   -0.8250    0.0000 C   0  0
   -2.8602    1.3738    0.0000 H   0  0
    4.2866   -1.3823    0.0000 H   0  0
  1  2  1  0
  2  3  2  0
  3  4  1  0
  4  5  2  0
  5  6  1  0
  5 13  1  0
  6  7  2  0
  6  8  1  0
  8  9  1  0
  8 33  1  0
  9 10  1  0
 10 11  1  0
 11 12  1  0
 12  9  1  0
 13 14  1  0
 13 15  2  0
 15  2  1  0
 15 16  1  0
 16 17  2  0
 17 18  1  0
 18 19  2  0
 19 20  1  0
 20 21  2  0
 21 22  1  0
 21 28  1  0
 22 23  1  0
 22 32  1  0
 23 24  2  0
 23 25  1  0
 25 26  1  0
 26 27  1  0
 27 25  1  0
 28 29  2  0
 29 30  1  0
 30 19  1  0
 30 31  2  0
 31 16  1  0
M  END
> <CMPD_CHEMBLID>
CHEMBL3689624

> <STANDARD_TYPE>
Ki

> <RELATION>
=

> <STANDARD_VALUE>
1

> <STANDARD_UNITS>
nM

> <Molecular_Weight>
419.44818

$$$$

  SciTegic11272012012D

 35 39  0  0  0  0            999 V2000
    0.8560   -1.9793    0.0000 C   0  0
    1.4281   -1.6502    0.0000 C   0  0
    2.1419   -2.0639    0.0000 C   0  0
    2.8570   -1.6525    0.0000 C   0  0
    2.8583   -0.8275    0.0000 C   0  0
    3.5747   -0.4174    0.0000 C   0  0
    3.5769    0.2426    0.0000 O   0  0
    4.2883   -0.8323    0.0000 N   0  0
    5.0047   -0.4221    0.0000 C   0  0
    5.7185   -0.8357    0.0000 C   0  0
    6.4336   -0.4244    0.0000 C   0  0
    6.4349    0.4006    0.0000 O   0  0
    5.7212    0.8143    0.0000 C   0  0
    5.0060    0.4029    0.0000 C   0  0
    2.1445   -0.4139    0.0000 C   0  0
    2.1455    0.2461    0.0000 F   0  0
    1.4293   -0.8252    0.0000 C   0  0
    0.7144   -0.4125    0.0000 C   0  0
    0.7144    0.4125    0.0000 C   0  0
    0.0000    0.8250    0.0000 C   0  0
   -0.7144    0.4125    0.0000 C   0  0
   -1.4290    0.8250    0.0000 C   0  0
   -2.1434    0.4125    0.0000 C   0  0
   -2.8591    0.8237    0.0000 N   0  0
   -3.5734    0.4100    0.0000 C   0  0
   -3.5722   -0.2500    0.0000 O   0  0
   -4.2891    0.8213    0.0000 C   0  0
   -5.0706    0.7961    0.0000 C   0  0
   -4.6581    1.5106    0.0000 C   0  0
   -2.1434   -0.4125    0.0000 N   0  0
   -1.4290   -0.8250    0.0000 C   0  0
   -0.7144   -0.4125    0.0000 C   0  0
    0.0000   -0.8250    0.0000 C   0  0
   -2.8601    1.3737    0.0000 H   0  0
    4.2865   -1.3823    0.0000 H   0  0
  1  2  1  0
  2  3  2  0
  3  4  1  0
  4  5  2  0
  5  6  1  0
  5 15  1  0
  6  7  2  0
  6  8  1  0
  8  9  1  0
  8 35  1  0
  9 10  1  0
 10 11  1  0
 11 12  1  0
 12 13  1  0
 13 14  1  0
 14  9  1  0
 15 16  1  0
 15 17  2  0
 17  2  1  0
 17 18  1  0
 18 19  2  0
 19 20  1  0
 20 21  2  0
 21 22  1  0
 22 23  2  0
 23 24  1  0
 23 30  1  0
 24 25  1  0
 24 34  1  0
 25 26  2  0
 25 27  1  0
 27 28  1  0
 28 29  1  0
 29 27  1  0
 30 31  2  0
 31 32  1  0
 32 21  1  0
 32 33  2  0
 33 18  1  0
M  END
> <CMPD_CHEMBLID>
CHEMBL3689625

> <STANDARD_TYPE>
Ki

> <RELATION>
=

> <STANDARD_VALUE>
1

> <STANDARD_UNITS>
nM

> <Molecular_Weight>
447.50134

$$$$

  SciTegic11272012012D

 26 29  0  0  0  0            999 V2000
    3.5704   -2.0679    0.0000 N   0  0
    2.8570   -1.6525    0.0000 C   0  0
    2.8583   -0.8275    0.0000 C   0  0
    2.1445   -0.4139    0.0000 C   0  0
    1.4293   -0.8252    0.0000 C   0  0
    1.4281   -1.6502    0.0000 C   0  0
    2.1419   -2.0639    0.0000 N   0  0
    0.7145   -0.4125    0.0000 C   0  0
    0.7145    0.4125    0.0000 C   0  0
    0.0000    0.8250    0.0000 C   0  0
   -0.7145    0.4125    0.0000 C   0  0
   -1.4290    0.8250    0.0000 C   0  0
   -2.1434    0.4125    0.0000 C   0  0
   -2.8592    0.8237    0.0000 N   0  0
   -3.5735    0.4100    0.0000 C   0  0
   -3.5723   -0.2500    0.0000 O   0  0
   -4.2892    0.8213    0.0000 C   0  0
   -5.0706    0.7961    0.0000 C   0  0
   -4.6581    1.5106    0.0000 C   0  0
   -2.1434   -0.4125    0.0000 N   0  0
   -1.4290   -0.8250    0.0000 C   0  0
   -0.7145   -0.4125    0.0000 C   0  0
    0.0000   -0.8250    0.0000 C   0  0
   -2.8601    1.3738    0.0000 H   0  0
    3.5687   -2.6179    0.0000 H   0  0
    4.0476   -1.7945    0.0000 H   0  0
  1  2  1  0
  1 25  1  0
  1 26  1  0
  2  3  2  0
  3  4  1  0
  4  5  2  0
  5  6  1  0
  5  8  1  0
  6  7  2  0
  7  2  1  0
  8  9  2  0
  9 10  1  0
 10 11  2  0
 11 12  1  0
 12 13  2  0
 13 14  1  0
 13 20  1  0
 14 15  1  0
 14 24  1  0
 15 16  2  0
 15 17  1  0
 17 18  1  0
 18 19  1  0
 19 17  1  0
 20 21  2  0
 21 22  1  0
 22 11  1  0
 22 23  2  0
 23  8  1  0
M  END
> <CMPD_CHEMBLID>
CHEMBL3685012

> <STANDARD_TYPE>
Ki

> <RELATION>
=

> <STANDARD_VALUE>
1

> <STANDARD_UNITS>
nM

> <Molecular_Weight>
304.34584

$$$$

  SciTegic11272012012D

 27 31  0  0  0  0            999 V2000
    0.8551   -1.9812    0.0000 O   0  0
    1.4273   -1.6521    0.0000 C   0  0
    1.4285   -0.8267    0.0000 N   0  0
    0.7144   -0.4125    0.0000 C   0  0
    0.7144    0.4125    0.0000 C   0  0
    0.0000    0.8250    0.0000 C   0  0
    0.0000    1.6500    0.0000 C   0  0
   -0.7145    2.0625    0.0000 C   0  0
   -1.4290    1.6500    0.0000 C   0  0
   -1.4290    0.8250    0.0000 C   0  0
   -0.7144    0.4125    0.0000 C   0  0
   -0.7144   -0.4125    0.0000 C   0  0
    0.0000   -0.8250    0.0000 N   0  0
   -2.1438    2.0627    0.0000 C   0  0
   -2.8576    1.6491    0.0000 C   0  0
   -3.5728    2.0605    0.0000 N   0  0
   -3.5741    2.8855    0.0000 C   0  0
   -2.8603    3.2991    0.0000 C   0  0
   -2.6903    4.1059    0.0000 N   0  0
   -1.8699    4.1935    0.0000 N   0  0
   -1.5332    3.4403    0.0000 C   0  0
   -2.1452    2.8877    0.0000 C   0  0
    2.1413   -2.0663    0.0000 C   0  0
    2.5103   -2.7557    0.0000 C   0  0
    2.9228   -2.0412    0.0000 C   0  0
   -3.0590    4.5140    0.0000 H   0  0
    1.9053   -0.5525    0.0000 H   0  0
  1  2  2  0
  2  3  1  0
  2 23  1  0
  3  4  1  0
  3 27  1  0
  4  5  2  0
  5  6  1  0
  6  7  2  0
  7  8  1  0
  8  9  2  0
  9 10  1  0
  9 14  1  0
 10 11  2  0
 11  6  1  0
 11 12  1  0
 12 13  2  0
 13  4  1  0
 14 15  2  0
 15 16  1  0
 16 17  2  0
 17 18  1  0
 18 19  1  0
 19 20  1  0
 19 26  1  0
 20 21  2  0
 21 22  1  0
 22 14  1  0
 22 18  2  0
 23 24  1  0
 24 25  1  0
 25 23  1  0
M  END
> <CMPD_CHEMBLID>
CHEMBL3689583

> <STANDARD_TYPE>
Ki

> <RELATION>
=

> <STANDARD_VALUE>
1

> <STANDARD_UNITS>
nM

> <Molecular_Weight>
329.3553

$$$$

  SciTegic11272012012D

 34 38  0  0  0  0            999 V2000
    2.1456    0.2461    0.0000 C   0  0
    2.1446   -0.4139    0.0000 C   0  0
    2.8584   -0.8275    0.0000 C   0  0
    2.8570   -1.6525    0.0000 C   0  0
    2.1419   -2.0639    0.0000 C   0  0
    2.1389   -2.8894    0.0000 N   0  0
    1.4228   -3.3000    0.0000 C   0  0
    0.8523   -2.9681    0.0000 O   0  0
    1.4198   -4.1254    0.0000 C   0  0
    0.7516   -4.5973    0.0000 C   0  0
    1.0053   -5.3823    0.0000 N   0  0
    1.8303   -5.3836    0.0000 N   0  0
    2.2174   -5.9182    0.0000 C   0  0
    2.0865   -4.5994    0.0000 C   0  0
    1.4281   -1.6503    0.0000 C   0  0
    1.4293   -0.8252    0.0000 C   0  0
    0.7145   -0.4125    0.0000 C   0  0
    0.7145    0.4125    0.0000 C   0  0
    0.0000    0.8250    0.0000 C   0  0
   -0.7145    0.4125    0.0000 C   0  0
   -1.4290    0.8250    0.0000 C   0  0
   -2.1435    0.4125    0.0000 C   0  0
   -2.8592    0.8238    0.0000 N   0  0
   -3.5735    0.4100    0.0000 C   0  0
   -3.5723   -0.2500    0.0000 O   0  0
   -4.2892    0.8213    0.0000 C   0  0
   -5.0707    0.7961    0.0000 C   0  0
   -4.6582    1.5106    0.0000 C   0  0
   -2.1435   -0.4125    0.0000 N   0  0
   -1.4290   -0.8250    0.0000 C   0  0
   -0.7145   -0.4125    0.0000 C   0  0
    0.0000   -0.8250    0.0000 C   0  0
   -2.8602    1.3738    0.0000 H   0  0
    2.6143   -3.1660    0.0000 H   0  0
  1  2  1  0
  2  3  2  0
  3  4  1  0
  4  5  2  0
  5  6  1  0
  5 15  1  0
  6  7  1  0
  6 34  1  0
  7  8  2  0
  7  9  1  0
  9 10  1  0
 10 11  2  0
 11 12  1  0
 12 13  1  0
 12 14  1  0
 14  9  2  0
 15 16  2  0
 16  2  1  0
 16 17  1  0
 17 18  2  0
 18 19  1  0
 19 20  2  0
 20 21  1  0
 21 22  2  0
 22 23  1  0
 22 29  1  0
 23 24  1  0
 23 33  1  0
 24 25  2  0
 24 26  1  0
 26 27  1  0
 27 28  1  0
 28 26  1  0
 29 30  2  0
 30 31  1  0
 31 20  1  0
 31 32  2  0
 32 17  1  0
M  END
> <CMPD_CHEMBLID>
CHEMBL3685171

> <STANDARD_TYPE>
Ki

> <RELATION>
=

> <STANDARD_VALUE>
1

> <STANDARD_UNITS>
nM

> <Molecular_Weight>
425.48242

$$$$

  SciTegic11272012012D

 28 31  0  0  0  0            999 V2000
    2.7094   -3.2213    0.0000 C   0  0
    2.1389   -2.8894    0.0000 C   0  0
    1.4228   -3.2999    0.0000 O   0  0
    2.1419   -2.0639    0.0000 C   0  0
    2.8570   -1.6525    0.0000 C   0  0
    2.8583   -0.8275    0.0000 C   0  0
    2.1445   -0.4139    0.0000 C   0  0
    2.1456    0.2461    0.0000 C   0  0
    1.4293   -0.8252    0.0000 C   0  0
    1.4281   -1.6502    0.0000 C   0  0
    0.7145   -0.4125    0.0000 C   0  0
    0.7145    0.4125    0.0000 C   0  0
    0.0000    0.8250    0.0000 C   0  0
   -0.7145    0.4125    0.0000 C   0  0
   -1.4290    0.8250    0.0000 C   0  0
   -2.1434    0.4125    0.0000 C   0  0
   -2.8592    0.8237    0.0000 N   0  0
   -3.5735    0.4100    0.0000 C   0  0
   -3.5723   -0.2500    0.0000 O   0  0
   -4.2892    0.8213    0.0000 C   0  0
   -5.0706    0.7961    0.0000 C   0  0
   -4.6581    1.5106    0.0000 C   0  0
   -2.1434   -0.4125    0.0000 N   0  0
   -1.4290   -0.8250    0.0000 C   0  0
   -0.7145   -0.4125    0.0000 C   0  0
    0.0000   -0.8250    0.0000 C   0  0
   -2.8601    1.3738    0.0000 H   0  0
    1.4208   -3.8499    0.0000 H   0  0
  1  2  1  0
  2  3  1  0
  2  4  1  0
  3 28  1  0
  4  5  2  0
  5  6  1  0
  6  7  2  0
  7  8  1  0
  7  9  1  0
  9 10  2  0
  9 11  1  0
 10  4  1  0
 11 12  2  0
 12 13  1  0
 13 14  2  0
 14 15  1  0
 15 16  2  0
 16 17  1  0
 16 23  1  0
 17 18  1  0
 17 27  1  0
 18 19  2  0
 18 20  1  0
 20 21  1  0
 21 22  1  0
 22 20  1  0
 23 24  2  0
 24 25  1  0
 25 14  1  0
 25 26  2  0
 26 11  1  0
M  END
> <CMPD_CHEMBLID>
CHEMBL3685160

> <STANDARD_TYPE>
Ki

> <RELATION>
=

> <STANDARD_VALUE>
1

> <STANDARD_UNITS>
nM

> <Molecular_Weight>
346.42228

$$$$

  SciTegic11272012012D

 26 29  0  0  0  0            999 V2000
    2.1456    0.2461    0.0000 C   0  0
    2.1445   -0.4139    0.0000 C   0  0
    2.8583   -0.8275    0.0000 C   0  0
    2.8570   -1.6525    0.0000 C   0  0
    2.1419   -2.0639    0.0000 C   0  0
    2.1408   -2.7239    0.0000 F   0  0
    1.4281   -1.6502    0.0000 C   0  0
    1.4293   -0.8252    0.0000 C   0  0
    0.7145   -0.4125    0.0000 C   0  0
    0.7145    0.4125    0.0000 C   0  0
    0.0000    0.8250    0.0000 C   0  0
   -0.7145    0.4125    0.0000 C   0  0
   -1.4290    0.8250    0.0000 C   0  0
   -2.1434    0.4125    0.0000 C   0  0
   -2.8592    0.8237    0.0000 N   0  0
   -3.5735    0.4100    0.0000 C   0  0
   -3.5723   -0.2500    0.0000 O   0  0
   -4.2892    0.8213    0.0000 C   0  0
   -5.0614    0.5935    0.0000 C   0  0
   -5.2750    1.3904    0.0000 C   0  0
   -4.4781    1.6039    0.0000 C   0  0
   -2.1434   -0.4125    0.0000 N   0  0
   -1.4290   -0.8250    0.0000 C   0  0
   -0.7145   -0.4125    0.0000 C   0  0
    0.0000   -0.8250    0.0000 C   0  0
   -2.8601    1.3738    0.0000 H   0  0
  1  2  1  0
  2  3  2  0
  3  4  1  0
  4  5  2  0
  5  6  1  0
  5  7  1  0
  7  8  2  0
  8  2  1  0
  8  9  1  0
  9 10  2  0
 10 11  1  0
 11 12  2  0
 12 13  1  0
 13 14  2  0
 14 15  1  0
 14 22  1  0
 15 16  1  0
 15 26  1  0
 16 17  2  0
 16 18  1  0
 18 19  1  0
 19 20  1  0
 20 21  1  0
 21 18  1  0
 22 23  2  0
 23 24  1  0
 24 12  1  0
 24 25  2  0
 25  9  1  0
M  END
> <CMPD_CHEMBLID>
CHEMBL3685002

> <STANDARD_TYPE>
Ki

> <RELATION>
=

> <STANDARD_VALUE>
1

> <STANDARD_UNITS>
nM

> <Molecular_Weight>
334.38676

$$$$

  SciTegic11272012012D

 29 32  0  0  0  0            999 V2000
    4.1419   -3.2214    0.0000 C   0  0
    3.5703   -2.8914    0.0000 N   0  0
    2.8558   -3.3038    0.0000 C   0  0
    2.1414   -2.8913    0.0000 C   0  0
    2.1413   -2.0663    0.0000 C   0  0
    2.8559   -1.6539    0.0000 C   0  0
    3.5703   -2.0664    0.0000 C   0  0
    1.4273   -1.6521    0.0000 C   0  0
    0.8551   -1.9812    0.0000 O   0  0
    1.4285   -0.8267    0.0000 N   0  0
    0.7144   -0.4125    0.0000 C   0  0
    0.7144    0.4125    0.0000 C   0  0
    0.0000    0.8250    0.0000 C   0  0
    0.0000    1.6500    0.0000 C   0  0
   -0.7145    2.0625    0.0000 C   0  0
   -1.4290    1.6500    0.0000 C   0  0
   -1.4290    0.8250    0.0000 C   0  0
   -0.7144    0.4125    0.0000 C   0  0
   -0.7144   -0.4125    0.0000 C   0  0
    0.0000   -0.8250    0.0000 N   0  0
   -2.1438    2.0627    0.0000 C   0  0
   -2.8576    1.6491    0.0000 C   0  0
   -3.5728    2.0605    0.0000 C   0  0
   -4.1438    1.7295    0.0000 F   0  0
   -3.5741    2.8855    0.0000 C   0  0
   -2.8603    3.2991    0.0000 C   0  0
   -2.1452    2.8877    0.0000 C   0  0
   -1.5741    3.2187    0.0000 C   0  0
    1.9053   -0.5525    0.0000 H   0  0
  1  2  1  0
  2  3  1  0
  3  4  1  0
  4  5  1  0
  5  6  1  0
  5  8  1  0
  6  7  1  0
  7  2  1  0
  8  9  2  0
  8 10  1  0
 10 11  1  0
 10 29  1  0
 11 12  2  0
 12 13  1  0
 13 14  2  0
 14 15  1  0
 15 16  2  0
 16 17  1  0
 16 21  1  0
 17 18  2  0
 18 13  1  0
 18 19  1  0
 19 20  2  0
 20 11  1  0
 21 22  2  0
 22 23  1  0
 23 24  1  0
 23 25  2  0
 25 26  1  0
 26 27  2  0
 27 21  1  0
 27 28  1  0
M  END
> <CMPD_CHEMBLID>
CHEMBL3685031

> <STANDARD_TYPE>
Ki

> <RELATION>
=

> <STANDARD_VALUE>
1

> <STANDARD_UNITS>
nM

> <Molecular_Weight>
377.45456

$$$$

  SciTegic11272012012D

 26 28  0  0  0  0            999 V2000
    2.7111   -3.2230    0.0000 C   0  0
    2.1402   -2.8918    0.0000 N   0  0
    1.5680   -3.2208    0.0000 C   0  0
    2.1413   -2.0663    0.0000 C   0  0
    1.4273   -1.6521    0.0000 C   0  0
    0.8551   -1.9812    0.0000 O   0  0
    1.4285   -0.8267    0.0000 N   0  0
    0.7144   -0.4125    0.0000 C   0  0
    0.7144    0.4125    0.0000 C   0  0
    0.0000    0.8250    0.0000 C   0  0
    0.0000    1.6500    0.0000 C   0  0
   -0.7145    2.0625    0.0000 C   0  0
   -1.4290    1.6500    0.0000 C   0  0
   -1.4290    0.8250    0.0000 C   0  0
   -0.7144    0.4125    0.0000 C   0  0
   -0.7144   -0.4125    0.0000 C   0  0
    0.0000   -0.8250    0.0000 N   0  0
   -2.1438    2.0627    0.0000 C   0  0
   -2.8576    1.6491    0.0000 C   0  0
   -3.5728    2.0605    0.0000 C   0  0
   -4.1438    1.7295    0.0000 F   0  0
   -3.5741    2.8855    0.0000 C   0  0
   -2.8603    3.2991    0.0000 C   0  0
   -2.1452    2.8877    0.0000 C   0  0
   -1.5741    3.2187    0.0000 C   0  0
    1.9053   -0.5525    0.0000 H   0  0
  1  2  1  0
  2  3  1  0
  2  4  1  0
  4  5  1  0
  5  6  2  0
  5  7  1  0
  7  8  1  0
  7 26  1  0
  8  9  2  0
  9 10  1  0
 10 11  2  0
 11 12  1  0
 12 13  2  0
 13 14  1  0
 13 18  1  0
 14 15  2  0
 15 10  1  0
 15 16  1  0
 16 17  2  0
 17  8  1  0
 18 19  2  0
 19 20  1  0
 20 21  1  0
 20 22  2  0
 22 23  1  0
 23 24  2  0
 24 18  1  0
 24 25  1  0
M  END
> <CMPD_CHEMBLID>
CHEMBL3685050

> <STANDARD_TYPE>
Ki

> <RELATION>
=

> <STANDARD_VALUE>
1

> <STANDARD_UNITS>
nM

> <Molecular_Weight>
337.3907

$$$$

  SciTegic11272012012D

 41 45  0  0  0  0            999 V2000
   -6.3002  -11.1081    0.0000 C   0  0
   -6.2311  -10.4517    0.0000 N   0  0
   -6.8985   -9.9666    0.0000 C   0  0
   -6.8121   -9.1462    0.0000 C   0  0
   -6.0583   -8.8107    0.0000 N   0  0
   -5.9702   -7.9900    0.0000 C   0  0
   -5.2155   -7.6555    0.0000 C   0  0
   -4.5499   -8.1429    0.0000 C   0  0
   -3.7950   -7.8101    0.0000 C   0  0
   -3.7057   -6.9899    0.0000 C   0  0
   -2.9510   -6.6554    0.0000 N   0  0
   -2.8628   -5.8347    0.0000 C   0  0
   -3.3961   -5.4457    0.0000 O   0  0
   -2.1083   -5.5002    0.0000 N   0  0
   -2.0203   -4.6809    0.0000 C   0  0
   -1.3057   -4.2685    0.0000 C   0  0
   -1.4851   -3.4705    0.0000 C   0  0
   -0.9327   -2.8571    0.0000 C   0  0
   -0.3802   -2.2438    0.0000 C   0  0
    0.1713   -1.6316    0.0000 C   0  0
    0.9918   -1.7178    0.0000 C   0  0
    1.3273   -0.9641    0.0000 N   0  0
    0.7144   -0.4125    0.0000 C   0  0
    0.7144    0.4125    0.0000 C   0  0
    0.0000    0.8250    0.0000 C   0  0
   -0.7144    0.4125    0.0000 C   0  0
   -0.7144   -0.4125    0.0000 N   0  0
    0.0000   -0.8250    0.0000 N   0  0
   -2.2975   -3.3751    0.0000 N   0  0
   -2.6240   -2.8015    0.0000 C   0  0
   -2.6332   -4.1287    0.0000 N   0  0
   -4.3714   -6.5026    0.0000 C   0  0
   -5.1263   -6.8353    0.0000 C   0  0
   -5.7923   -6.3477    0.0000 C   0  0
   -5.7213   -5.6915    0.0000 F   0  0
   -6.3961   -6.6141    0.0000 F   0  0
   -6.3250   -5.9580    0.0000 F   0  0
   -5.3910   -9.2958    0.0000 C   0  0
   -5.4774  -10.1163    0.0000 C   0  0
   -1.6639   -5.8243    0.0000 H   0  0
   -2.5067   -6.9796    0.0000 H   0  0
  1  2  1  0
  2  3  1  0
  3  4  1  0
  4  5  1  0
  5  6  1  0
  5 38  1  0
  6  7  1  0
  7  8  2  0
  8  9  1  0
  9 10  2  0
 10 11  1  0
 10 32  1  0
 11 12  1  0
 11 41  1  0
 12 13  2  0
 12 14  1  0
 14 15  1  0
 14 40  1  0
 15 16  1  0
 16 17  2  0
 17 18  1  0
 17 29  1  0
 18 19  3  0
 19 20  1  0
 20 21  2  0
 21 22  1  0
 22 23  2  0
 23 24  1  0
 24 25  2  0
 25 26  1  0
 26 27  2  0
 27 28  1  0
 28 20  1  0
 28 23  1  0
 29 30  1  0
 29 31  1  0
 31 15  2  0
 32 33  2  0
 33  7  1  0
 33 34  1  0
 34 35  1  0
 34 36  1  0
 34 37  1  0
 38 39  1  0
 39  2  1  0
M  END
> <CMPD_CHEMBLID>
CHEMBL2324926

> <STANDARD_TYPE>
IC50

> <RELATION>
=

> <STANDARD_VALUE>
1

> <STANDARD_UNITS>
nM

> <Molecular_Weight>
537.53955

$$$$

  SciTegic11272012012D

 21 23  0  0  0  0            999 V2000
    1.9982   -1.9833    0.0000 C   0  0
    1.4273   -1.6522    0.0000 C   0  0
    0.8552   -1.9812    0.0000 C   0  0
    1.4285   -0.8267    0.0000 C   0  0
    0.7145   -0.4125    0.0000 C   0  0
    0.7145    0.4125    0.0000 C   0  0
    0.0000    0.8250    0.0000 C   0  0
   -0.7145    0.4125    0.0000 C   0  0
   -1.4290    0.8250    0.0000 C   0  0
   -2.1435    0.4125    0.0000 C   0  0
   -2.8592    0.8238    0.0000 N   0  0
   -3.5735    0.4100    0.0000 C   0  0
   -3.5723   -0.2500    0.0000 O   0  0
   -4.2892    0.8213    0.0000 C   0  0
   -5.0707    0.7961    0.0000 C   0  0
   -4.6582    1.5106    0.0000 C   0  0
   -2.1435   -0.4125    0.0000 N   0  0
   -1.4290   -0.8250    0.0000 C   0  0
   -0.7145   -0.4125    0.0000 C   0  0
    0.0000   -0.8250    0.0000 C   0  0
   -2.8602    1.3738    0.0000 H   0  0
  1  2  1  0
  2  3  1  0
  2  4  1  0
  4  5  1  0
  5  6  2  0
  6  7  1  0
  7  8  2  0
  8  9  1  0
  9 10  2  0
 10 11  1  0
 10 17  1  0
 11 12  1  0
 11 21  1  0
 12 13  2  0
 12 14  1  0
 14 15  1  0
 15 16  1  0
 16 14  1  0
 17 18  2  0
 18 19  1  0
 19  8  1  0
 19 20  2  0
 20  5  1  0
M  END
> <CMPD_CHEMBLID>
CHEMBL3685148

> <STANDARD_TYPE>
Ki

> <RELATION>
=

> <STANDARD_VALUE>
1

> <STANDARD_UNITS>
nM

> <Molecular_Weight>
268.3535

$$$$

  SciTegic11272012012D

 32 36  0  0  0  0            999 V2000
    2.1455    0.2461    0.0000 C   0  0
    2.1445   -0.4139    0.0000 C   0  0
    2.8583   -0.8275    0.0000 C   0  0
    2.8570   -1.6525    0.0000 C   0  0
    2.1419   -2.0639    0.0000 C   0  0
    2.1408   -2.7239    0.0000 F   0  0
    1.4281   -1.6502    0.0000 C   0  0
    1.4293   -0.8252    0.0000 C   0  0
    0.7144   -0.4125    0.0000 C   0  0
    0.7144    0.4125    0.0000 C   0  0
    0.0000    0.8250    0.0000 C   0  0
    0.0000    1.6500    0.0000 C   0  0
   -0.7145    2.0625    0.0000 N   0  0
   -1.4290    1.6500    0.0000 C   0  0
   -2.1447    2.0612    0.0000 N   0  0
   -2.8590    1.6475    0.0000 C   0  0
   -2.8578    0.9875    0.0000 O   0  0
   -3.5747    2.0588    0.0000 C   0  0
   -4.3561    2.0337    0.0000 C   0  0
   -3.9436    2.7481    0.0000 C   0  0
   -1.4290    0.8250    0.0000 C   0  0
   -0.7144    0.4125    0.0000 C   0  0
   -0.7144   -0.4125    0.0000 C   0  0
    0.0000   -0.8250    0.0000 N   0  0
   -1.4293   -0.8252    0.0000 N   0  0
   -2.1445   -0.4139    0.0000 C   0  0
   -2.8583   -0.8275    0.0000 C   0  0
   -2.8570   -1.6525    0.0000 N   0  0
   -2.1419   -2.0639    0.0000 C   0  0
   -1.4280   -1.6502    0.0000 C   0  0
   -3.3328   -1.9282    0.0000 H   0  0
   -2.1457    2.6112    0.0000 H   0  0
  1  2  1  0
  2  3  2  0
  3  4  1  0
  4  5  2  0
  5  6  1  0
  5  7  1  0
  7  8  2  0
  8  2  1  0
  8  9  1  0
  9 10  2  0
 10 11  1  0
 11 12  2  0
 12 13  1  0
 13 14  2  0
 14 15  1  0
 14 21  1  0
 15 16  1  0
 15 32  1  0
 16 17  2  0
 16 18  1  0
 18 19  1  0
 19 20  1  0
 20 18  1  0
 21 22  2  0
 22 11  1  0
 22 23  1  0
 23 24  2  0
 23 25  1  0
 24  9  1  0
 25 26  1  0
 26 27  1  0
 27 28  1  0
 28 29  1  0
 28 31  1  0
 29 30  1  0
 30 25  1  0
M  END
> <CMPD_CHEMBLID>
CHEMBL3689673

> <STANDARD_TYPE>
Ki

> <RELATION>
=

> <STANDARD_VALUE>
1

> <STANDARD_UNITS>
nM

> <Molecular_Weight>
405.46796

$$$$

  SciTegic11272012012D

 32 36  0  0  0  0            999 V2000
    2.1456    0.2461    0.0000 C   0  0
    2.1445   -0.4139    0.0000 C   0  0
    2.8583   -0.8275    0.0000 C   0  0
    2.8570   -1.6525    0.0000 C   0  0
    2.1419   -2.0639    0.0000 C   0  0
    1.4281   -1.6502    0.0000 C   0  0
    1.4293   -0.8252    0.0000 C   0  0
    0.7145   -0.4125    0.0000 C   0  0
    0.7145    0.4125    0.0000 C   0  0
    0.0000    0.8250    0.0000 C   0  0
   -0.7145    0.4125    0.0000 C   0  0
   -1.4290    0.8250    0.0000 C   0  0
   -2.1434    0.4125    0.0000 C   0  0
   -2.8592    0.8237    0.0000 N   0  0
   -3.5735    0.4100    0.0000 C   0  0
   -3.5723   -0.2500    0.0000 O   0  0
   -4.2892    0.8213    0.0000 C   0  0
   -5.0706    0.7961    0.0000 C   0  0
   -4.6581    1.5106    0.0000 C   0  0
   -2.1434   -0.4125    0.0000 N   0  0
   -1.4290   -0.8250    0.0000 C   0  0
   -0.7145   -0.4125    0.0000 C   0  0
    0.0000   -0.8250    0.0000 C   0  0
    2.1389   -2.8894    0.0000 C   0  0
    2.7094   -3.2213    0.0000 O   0  0
    1.4228   -3.2999    0.0000 N   0  0
    1.4198   -4.1254    0.0000 C   0  0
    0.8355   -4.6794    0.0000 C   0  0
    1.4180   -5.2637    0.0000 O   0  0
    2.0023   -4.6813    0.0000 C   0  0
    0.9474   -3.0233    0.0000 H   0  0
   -2.8601    1.3738    0.0000 H   0  0
  1  2  1  0
  2  3  2  0
  3  4  1  0
  4  5  2  0
  5  6  1  0
  5 24  1  0
  6  7  2  0
  7  2  1  0
  7  8  1  0
  8  9  2  0
  9 10  1  0
 10 11  2  0
 11 12  1  0
 12 13  2  0
 13 14  1  0
 13 20  1  0
 14 15  1  0
 14 32  1  0
 15 16  2  0
 15 17  1  0
 17 18  1  0
 18 19  1  0
 19 17  1  0
 20 21  2  0
 21 22  1  0
 22 11  1  0
 22 23  2  0
 23  8  1  0
 24 25  2  0
 24 26  1  0
 26 27  1  0
 26 31  1  0
 27 28  1  0
 28 29  1  0
 29 30  1  0
 30 27  1  0
M  END
> <CMPD_CHEMBLID>
CHEMBL3689591

> <STANDARD_TYPE>
Ki

> <RELATION>
=

> <STANDARD_VALUE>
1

> <STANDARD_UNITS>
nM

> <Molecular_Weight>
401.45772

$$$$

  SciTegic11272012012D

 27 31  0  0  0  0            999 V2000
    0.8551   -1.9812    0.0000 O   0  0
    1.4273   -1.6521    0.0000 C   0  0
    1.4285   -0.8267    0.0000 N   0  0
    0.7144   -0.4125    0.0000 C   0  0
    0.7144    0.4125    0.0000 C   0  0
    0.0000    0.8250    0.0000 C   0  0
    0.0000    1.6500    0.0000 C   0  0
   -0.7145    2.0625    0.0000 C   0  0
   -1.4290    1.6500    0.0000 C   0  0
   -1.4290    0.8250    0.0000 C   0  0
   -0.7144    0.4125    0.0000 C   0  0
   -0.7144   -0.4125    0.0000 C   0  0
    0.0000   -0.8250    0.0000 N   0  0
   -2.1438    2.0627    0.0000 C   0  0
   -2.8576    1.6491    0.0000 C   0  0
   -3.5728    2.0605    0.0000 C   0  0
   -3.5741    2.8855    0.0000 C   0  0
   -2.8603    3.2991    0.0000 C   0  0
   -2.6903    4.1059    0.0000 N   0  0
   -1.8699    4.1935    0.0000 C   0  0
   -1.5332    3.4403    0.0000 N   0  0
   -2.1452    2.8877    0.0000 C   0  0
    2.1413   -2.0663    0.0000 C   0  0
    2.5103   -2.7557    0.0000 C   0  0
    2.9228   -2.0412    0.0000 C   0  0
   -3.0590    4.5140    0.0000 H   0  0
    1.9053   -0.5525    0.0000 H   0  0
  1  2  2  0
  2  3  1  0
  2 23  1  0
  3  4  1  0
  3 27  1  0
  4  5  2  0
  5  6  1  0
  6  7  2  0
  7  8  1  0
  8  9  2  0
  9 10  1  0
  9 14  1  0
 10 11  2  0
 11  6  1  0
 11 12  1  0
 12 13  2  0
 13  4  1  0
 14 15  2  0
 15 16  1  0
 16 17  2  0
 17 18  1  0
 18 19  1  0
 19 20  1  0
 19 26  1  0
 20 21  2  0
 21 22  1  0
 22 14  1  0
 22 18  2  0
 23 24  1  0
 24 25  1  0
 25 23  1  0
M  END
> <CMPD_CHEMBLID>
CHEMBL3689589

> <STANDARD_TYPE>
Ki

> <RELATION>
=

> <STANDARD_VALUE>
1

> <STANDARD_UNITS>
nM

> <Molecular_Weight>
328.36724

$$$$

  SciTegic11272012012D

 26 29  0  0  0  0            999 V2000
    1.2861   -0.7425    0.0000 C   0  0
    0.7144   -0.4125    0.0000 C   0  0
    0.7144    0.4125    0.0000 C   0  0
    1.4290    0.8250    0.0000 C   0  0
    1.4290    1.6500    0.0000 C   0  0
    2.1430    2.0642    0.0000 N   0  0
    2.1418    2.8896    0.0000 C   0  0
    1.5696    3.2187    0.0000 O   0  0
    2.8558    3.3038    0.0000 C   0  0
    3.2248    3.9932    0.0000 C   0  0
    3.6373    3.2787    0.0000 C   0  0
    0.7144    2.0625    0.0000 N   0  0
    0.0000    1.6500    0.0000 C   0  0
    0.0000    0.8250    0.0000 C   0  0
   -0.7144    0.4125    0.0000 C   0  0
   -0.7144   -0.4125    0.0000 C   0  0
   -1.4293   -0.8252    0.0000 C   0  0
   -1.4280   -1.6502    0.0000 C   0  0
   -2.1419   -2.0639    0.0000 C   0  0
   -2.8570   -1.6525    0.0000 C   0  0
   -2.8583   -0.8275    0.0000 C   0  0
   -2.1444   -0.4139    0.0000 C   0  0
   -2.1455    0.2461    0.0000 Cl  0  0
    0.0000   -0.8250    0.0000 N   0  3
    0.0000   -1.4850    0.0000 O   0  5
    2.6198    1.7900    0.0000 H   0  0
  1  2  1  0
  2  3  2  0
  3  4  1  0
  4  5  2  0
  5  6  1  0
  5 12  1  0
  6  7  1  0
  6 26  1  0
  7  8  2  0
  7  9  1  0
  9 10  1  0
 10 11  1  0
 11  9  1  0
 12 13  2  0
 13 14  1  0
 14  3  1  0
 14 15  2  0
 15 16  1  0
 16 17  1  0
 16 24  2  0
 17 18  2  0
 18 19  1  0
 19 20  2  0
 20 21  1  0
 21 22  2  0
 22 17  1  0
 22 23  1  0
 24  2  1  0
 24 25  1  0
M  CHG  2  24   1  25  -1
M  END
> <CMPD_CHEMBLID>
CHEMBL3689669

> <STANDARD_TYPE>
Ki

> <RELATION>
=

> <STANDARD_VALUE>
1

> <STANDARD_UNITS>
nM

> <Molecular_Weight>
353.80224

$$$$

  SciTegic11272012012D

 24 27  0  0  0  0            999 V2000
    2.6430   -2.5667    0.0000 O   0  0
    2.3106   -1.8126    0.0000 C   0  0
    2.7243   -1.0988    0.0000 C   0  0
    2.1732   -0.4848    0.0000 C   0  0
    1.4293   -0.8252    0.0000 N   0  0
    1.5039   -1.6399    0.0000 C   0  0
    0.7145   -0.4125    0.0000 C   0  0
    0.7145    0.4125    0.0000 C   0  0
    0.0000    0.8250    0.0000 C   0  0
   -0.7145    0.4125    0.0000 C   0  0
   -1.4290    0.8250    0.0000 C   0  0
   -2.1435    0.4125    0.0000 C   0  0
   -2.8592    0.8238    0.0000 N   0  0
   -3.5735    0.4100    0.0000 C   0  0
   -3.5723   -0.2500    0.0000 O   0  0
   -4.2892    0.8213    0.0000 C   0  0
   -5.0707    0.7961    0.0000 C   0  0
   -4.6582    1.5106    0.0000 C   0  0
   -2.1435   -0.4125    0.0000 N   0  0
   -1.4290   -0.8250    0.0000 C   0  0
   -0.7145   -0.4125    0.0000 C   0  0
    0.0000   -0.8250    0.0000 C   0  0
   -2.8602    1.3738    0.0000 H   0  0
    2.3184   -3.0107    0.0000 H   0  0
  1  2  1  0
  1 24  1  0
  2  3  1  0
  3  4  1  0
  4  5  1  0
  5  6  1  0
  5  7  1  0
  6  2  1  0
  7  8  2  0
  8  9  1  0
  9 10  2  0
 10 11  1  0
 11 12  2  0
 12 13  1  0
 12 19  1  0
 13 14  1  0
 13 23  1  0
 14 15  2  0
 14 16  1  0
 16 17  1  0
 17 18  1  0
 18 16  1  0
 19 20  2  0
 20 21  1  0
 21 10  1  0
 21 22  2  0
 22  7  1  0
M  END
> <CMPD_CHEMBLID>
CHEMBL3685182

> <STANDARD_TYPE>
Ki

> <RELATION>
=

> <STANDARD_VALUE>
1

> <STANDARD_UNITS>
nM

> <Molecular_Weight>
297.35166

$$$$

  SciTegic11272012012D

 24 27  0  0  0  0            999 V2000
    2.1456    0.2461    0.0000 C   0  0
    2.1446   -0.4139    0.0000 C   0  0
    2.8584   -0.8275    0.0000 N   0  0
    2.8570   -1.6525    0.0000 C   0  0
    2.1419   -2.0639    0.0000 C   0  0
    1.4281   -1.6503    0.0000 N   0  0
    1.4293   -0.8252    0.0000 C   0  0
    0.7145   -0.4125    0.0000 C   0  0
    0.7145    0.4125    0.0000 C   0  0
    0.0000    0.8250    0.0000 C   0  0
   -0.7145    0.4125    0.0000 C   0  0
   -1.4290    0.8250    0.0000 C   0  0
   -2.1435    0.4125    0.0000 C   0  0
   -2.8592    0.8238    0.0000 N   0  0
   -3.5735    0.4100    0.0000 C   0  0
   -3.5723   -0.2500    0.0000 O   0  0
   -4.2892    0.8213    0.0000 C   0  0
   -5.0707    0.7961    0.0000 C   0  0
   -4.6582    1.5106    0.0000 C   0  0
   -2.1435   -0.4125    0.0000 N   0  0
   -1.4290   -0.8250    0.0000 C   0  0
   -0.7145   -0.4125    0.0000 C   0  0
    0.0000   -0.8250    0.0000 C   0  0
   -2.8602    1.3738    0.0000 H   0  0
  1  2  1  0
  2  3  2  0
  3  4  1  0
  4  5  2  0
  5  6  1  0
  6  7  2  0
  7  2  1  0
  7  8  1  0
  8  9  2  0
  9 10  1  0
 10 11  2  0
 11 12  1  0
 12 13  2  0
 13 14  1  0
 13 20  1  0
 14 15  1  0
 14 24  1  0
 15 16  2  0
 15 17  1  0
 17 18  1  0
 18 19  1  0
 19 17  1  0
 20 21  2  0
 21 22  1  0
 22 11  1  0
 22 23  2  0
 23  8  1  0
M  END
> <CMPD_CHEMBLID>
CHEMBL3685137

> <STANDARD_TYPE>
Ki

> <RELATION>
=

> <STANDARD_VALUE>
1

> <STANDARD_UNITS>
nM

> <Molecular_Weight>
304.34584

$$$$

  SciTegic11272012012D

 21 23  0  0  0  0            999 V2000
    1.9982   -1.9833    0.0000 C   0  0
    1.4273   -1.6522    0.0000 C   0  0
    0.8552   -1.9812    0.0000 C   0  0
    1.4285   -0.8267    0.0000 S   0  0
    0.7145   -0.4125    0.0000 C   0  0
    0.7145    0.4125    0.0000 C   0  0
    0.0000    0.8250    0.0000 C   0  0
   -0.7145    0.4125    0.0000 C   0  0
   -1.4290    0.8250    0.0000 C   0  0
   -2.1435    0.4125    0.0000 C   0  0
   -2.8592    0.8238    0.0000 N   0  0
   -3.5735    0.4100    0.0000 C   0  0
   -3.5723   -0.2500    0.0000 O   0  0
   -4.2892    0.8213    0.0000 C   0  0
   -5.0707    0.7961    0.0000 C   0  0
   -4.6582    1.5106    0.0000 C   0  0
   -2.1435   -0.4125    0.0000 N   0  0
   -1.4290   -0.8250    0.0000 C   0  0
   -0.7145   -0.4125    0.0000 C   0  0
    0.0000   -0.8250    0.0000 C   0  0
   -2.8602    1.3738    0.0000 H   0  0
  1  2  1  0
  2  3  1  0
  2  4  1  0
  4  5  1  0
  5  6  2  0
  6  7  1  0
  7  8  2  0
  8  9  1  0
  9 10  2  0
 10 11  1  0
 10 17  1  0
 11 12  1  0
 11 21  1  0
 12 13  2  0
 12 14  1  0
 14 15  1  0
 15 16  1  0
 16 14  1  0
 17 18  2  0
 18 19  1  0
 19  8  1  0
 19 20  2  0
 20  5  1  0
M  END
> <CMPD_CHEMBLID>
CHEMBL3689550

> <STANDARD_TYPE>
Ki

> <RELATION>
=

> <STANDARD_VALUE>
1

> <STANDARD_UNITS>
nM

> <Molecular_Weight>
286.39192

$$$$

  SciTegic11272012012D

 32 34  0  0  0  0            999 V2000
    0.0477   -4.5998    0.0000 C   0  0
   -0.5860   -4.4152    0.0000 O   0  0
   -0.7828   -3.6136    0.0000 C   0  0
   -0.1861   -3.0438    0.0000 C   0  0
   -0.3811   -2.2450    0.0000 C   0  0
   -1.1730   -2.0104    0.0000 C   0  0
   -1.7697   -2.5801    0.0000 C   0  0
   -1.5746   -3.3818    0.0000 C   0  0
   -2.1728   -3.9506    0.0000 N   0  0
   -2.9647   -3.7175    0.0000 C   0  0
   -3.1196   -3.0759    0.0000 O   0  0
   -3.5628   -4.2863    0.0000 O   0  0
   -4.3547   -4.0532    0.0000 C   0  0
   -4.8330   -4.5080    0.0000 C   0  0
   -4.9878   -3.8665    0.0000 C   0  0
   -4.5097   -3.4116    0.0000 C   0  0
    0.1713   -1.6316    0.0000 C   0  0
    0.9918   -1.7179    0.0000 N   0  0
    1.3274   -0.9642    0.0000 N   0  0
    2.1337   -0.7943    0.0000 C   0  0
    2.5748   -1.2854    0.0000 C   0  0
    2.3387   -0.1669    0.0000 C   0  0
    0.7145   -0.4125    0.0000 C   0  0
    0.7145    0.4125    0.0000 N   0  0
    0.0000    0.8250    0.0000 C   0  0
   -0.7145    0.4125    0.0000 N   0  0
   -0.7145   -0.4125    0.0000 C   0  0
   -1.4302   -0.8238    0.0000 N   0  0
    0.0000   -0.8250    0.0000 C   0  0
   -1.9062   -0.5481    0.0000 H   0  0
   -1.4312   -1.3738    0.0000 H   0  0
   -2.0436   -4.4853    0.0000 H   0  0
  1  2  1  0
  2  3  1  0
  3  4  2  0
  4  5  1  0
  5  6  2  0
  5 17  1  0
  6  7  1  0
  7  8  2  0
  8  3  1  0
  8  9  1  0
  9 10  1  0
  9 32  1  0
 10 11  2  0
 10 12  1  0
 12 13  1  0
 13 14  1  0
 13 15  1  0
 13 16  1  0
 17 18  2  0
 18 19  1  0
 19 20  1  0
 19 23  1  0
 20 21  1  0
 20 22  1  0
 23 24  2  0
 24 25  1  0
 25 26  2  0
 26 27  1  0
 27 28  1  0
 27 29  2  0
 28 30  1  0
 28 31  1  0
 29 17  1  0
 29 23  1  0
M  END
> <CMPD_CHEMBLID>
CHEMBL1241481

> <STANDARD_TYPE>
IC50

> <RELATION>
<

> <STANDARD_VALUE>
1

> <STANDARD_UNITS>
nM

> <Molecular_Weight>
398.45884

$$$$

  SciTegic11272012012D

 25 28  0  0  0  0            999 V2000
    0.8551   -1.9812    0.0000 O   0  0
    1.4273   -1.6521    0.0000 C   0  0
    1.4285   -0.8267    0.0000 N   0  0
    0.7144   -0.4125    0.0000 C   0  0
    0.7144    0.4125    0.0000 C   0  0
    0.0000    0.8250    0.0000 C   0  0
    0.0000    1.6500    0.0000 C   0  0
   -0.7145    2.0625    0.0000 C   0  0
   -1.4290    1.6500    0.0000 C   0  0
   -1.4290    0.8250    0.0000 C   0  0
   -0.7144    0.4125    0.0000 C   0  0
   -0.7144   -0.4125    0.0000 C   0  0
    0.0000   -0.8250    0.0000 N   0  0
   -2.1438    2.0627    0.0000 C   0  0
   -2.8576    1.6491    0.0000 C   0  0
   -3.5728    2.0605    0.0000 N   0  0
   -3.5741    2.8855    0.0000 C   0  0
   -2.8603    3.2991    0.0000 C   0  0
   -2.1452    2.8877    0.0000 C   0  0
   -1.4310    3.3016    0.0000 C   0  0
   -0.8599    3.6325    0.0000 N   0  0
    2.1413   -2.0663    0.0000 C   0  0
    2.5103   -2.7557    0.0000 C   0  0
    2.9228   -2.0412    0.0000 C   0  0
    1.9053   -0.5525    0.0000 H   0  0
  1  2  2  0
  2  3  1  0
  2 22  1  0
  3  4  1  0
  3 25  1  0
  4  5  2  0
  5  6  1  0
  6  7  2  0
  7  8  1  0
  8  9  2  0
  9 10  1  0
  9 14  1  0
 10 11  2  0
 11  6  1  0
 11 12  1  0
 12 13  2  0
 13  4  1  0
 14 15  2  0
 15 16  1  0
 16 17  2  0
 17 18  1  0
 18 19  2  0
 19 14  1  0
 19 20  1  0
 20 21  3  0
 22 23  1  0
 23 24  1  0
 24 22  1  0
M  END
> <CMPD_CHEMBLID>
CHEMBL3685013

> <STANDARD_TYPE>
Ki

> <RELATION>
=

> <STANDARD_VALUE>
1

> <STANDARD_UNITS>
nM

> <Molecular_Weight>
314.34066

$$$$

  SciTegic11272012012D

 23 25  0  0  0  0            999 V2000
    2.0015   -1.9807    0.0000 C   0  0
    1.4299   -1.6507    0.0000 C   0  0
    0.8584   -1.9809    0.0000 C   0  0
    1.4294   -0.8252    0.0000 S   0  0
    2.0011   -1.1550    0.0000 O   0  0
    2.0008   -0.4951    0.0000 O   0  0
    0.7145   -0.4125    0.0000 C   0  0
    0.7145    0.4125    0.0000 C   0  0
    0.0000    0.8250    0.0000 C   0  0
   -0.7145    0.4125    0.0000 C   0  0
   -1.4290    0.8250    0.0000 C   0  0
   -2.1435    0.4125    0.0000 C   0  0
   -2.8592    0.8238    0.0000 N   0  0
   -3.5735    0.4100    0.0000 C   0  0
   -3.5723   -0.2500    0.0000 O   0  0
   -4.2892    0.8213    0.0000 C   0  0
   -5.0707    0.7961    0.0000 C   0  0
   -4.6582    1.5106    0.0000 C   0  0
   -2.1435   -0.4125    0.0000 N   0  0
   -1.4290   -0.8250    0.0000 C   0  0
   -0.7145   -0.4125    0.0000 C   0  0
    0.0000   -0.8250    0.0000 C   0  0
   -2.8602    1.3738    0.0000 H   0  0
  1  2  1  0
  2  3  1  0
  2  4  1  0
  4  5  2  0
  4  6  2  0
  4  7  1  0
  7  8  2  0
  8  9  1  0
  9 10  2  0
 10 11  1  0
 11 12  2  0
 12 13  1  0
 12 19  1  0
 13 14  1  0
 13 23  1  0
 14 15  2  0
 14 16  1  0
 16 17  1  0
 17 18  1  0
 18 16  1  0
 19 20  2  0
 20 21  1  0
 21 10  1  0
 21 22  2  0
 22  7  1  0
M  END
> <CMPD_CHEMBLID>
CHEMBL3689552

> <STANDARD_TYPE>
Ki

> <RELATION>
=

> <STANDARD_VALUE>
1

> <STANDARD_UNITS>
nM

> <Molecular_Weight>
318.39072

$$$$

  SciTegic11272012012D

 25 28  0  0  0  0            999 V2000
    2.1456    0.2461    0.0000 C   0  0
    2.1445   -0.4139    0.0000 C   0  0
    2.8583   -0.8275    0.0000 C   0  0
    2.8570   -1.6525    0.0000 C   0  0
    3.4281   -1.9834    0.0000 Cl  0  0
    2.1419   -2.0639    0.0000 C   0  0
    1.4281   -1.6502    0.0000 C   0  0
    1.4293   -0.8252    0.0000 C   0  0
    0.7145   -0.4125    0.0000 C   0  0
    0.7145    0.4125    0.0000 C   0  0
    0.0000    0.8250    0.0000 C   0  0
   -0.7145    0.4125    0.0000 C   0  0
   -1.4290    0.8250    0.0000 C   0  0
   -2.1434    0.4125    0.0000 C   0  0
   -2.8592    0.8237    0.0000 N   0  0
   -3.5735    0.4100    0.0000 C   0  0
   -3.5723   -0.2500    0.0000 O   0  0
   -4.2892    0.8213    0.0000 C   0  0
   -5.0706    0.7961    0.0000 C   0  0
   -4.6581    1.5106    0.0000 C   0  0
   -2.1434   -0.4125    0.0000 N   0  0
   -1.4290   -0.8250    0.0000 C   0  0
   -0.7145   -0.4125    0.0000 C   0  0
    0.0000   -0.8250    0.0000 C   0  0
   -2.8601    1.3738    0.0000 H   0  0
  1  2  1  0
  2  3  2  0
  3  4  1  0
  4  5  1  0
  4  6  2  0
  6  7  1  0
  7  8  2  0
  8  2  1  0
  8  9  1  0
  9 10  2  0
 10 11  1  0
 11 12  2  0
 12 13  1  0
 13 14  2  0
 14 15  1  0
 14 21  1  0
 15 16  1  0
 15 25  1  0
 16 17  2  0
 16 18  1  0
 18 19  1  0
 19 20  1  0
 20 18  1  0
 21 22  2  0
 22 23  1  0
 23 12  1  0
 23 24  2  0
 24  9  1  0
M  END
> <CMPD_CHEMBLID>
CHEMBL3685017

> <STANDARD_TYPE>
Ki

> <RELATION>
=

> <STANDARD_VALUE>
1

> <STANDARD_UNITS>
nM

> <Molecular_Weight>
336.81478

$$$$

  SciTegic11272012012D

 22 24  0  0  0  0            999 V2000
    1.9982   -1.9833    0.0000 C   0  0
    1.4273   -1.6522    0.0000 C   0  0
    0.8552   -1.9812    0.0000 C   0  0
    1.4285   -0.8267    0.0000 S   0  0
    2.0007   -0.4977    0.0000 O   0  0
    0.7145   -0.4125    0.0000 C   0  0
    0.7145    0.4125    0.0000 C   0  0
    0.0000    0.8250    0.0000 C   0  0
   -0.7145    0.4125    0.0000 C   0  0
   -1.4290    0.8250    0.0000 C   0  0
   -2.1435    0.4125    0.0000 C   0  0
   -2.8592    0.8238    0.0000 N   0  0
   -3.5735    0.4100    0.0000 C   0  0
   -3.5723   -0.2500    0.0000 O   0  0
   -4.2892    0.8213    0.0000 C   0  0
   -5.0707    0.7961    0.0000 C   0  0
   -4.6582    1.5106    0.0000 C   0  0
   -2.1435   -0.4125    0.0000 N   0  0
   -1.4290   -0.8250    0.0000 C   0  0
   -0.7145   -0.4125    0.0000 C   0  0
    0.0000   -0.8250    0.0000 C   0  0
   -2.8602    1.3738    0.0000 H   0  0
  1  2  1  0
  2  3  1  0
  2  4  1  0
  4  5  2  0
  4  6  1  0
  6  7  2  0
  7  8  1  0
  8  9  2  0
  9 10  1  0
 10 11  2  0
 11 12  1  0
 11 18  1  0
 12 13  1  0
 12 22  1  0
 13 14  2  0
 13 15  1  0
 15 16  1  0
 16 17  1  0
 17 15  1  0
 18 19  2  0
 19 20  1  0
 20  9  1  0
 20 21  2  0
 21  6  1  0
M  END
> <CMPD_CHEMBLID>
CHEMBL3689551

> <STANDARD_TYPE>
Ki

> <RELATION>
=

> <STANDARD_VALUE>
1

> <STANDARD_UNITS>
nM

> <Molecular_Weight>
302.39132

$$$$

  SciTegic11272012012D

 25 28  0  0  0  0            999 V2000
    2.1456    0.2461    0.0000 C   0  0
    2.1445   -0.4139    0.0000 C   0  0
    2.8583   -0.8275    0.0000 C   0  0
    3.4305   -0.4984    0.0000 Cl  0  0
    2.8570   -1.6525    0.0000 C   0  0
    2.1419   -2.0639    0.0000 C   0  0
    1.4281   -1.6502    0.0000 C   0  0
    1.4293   -0.8252    0.0000 C   0  0
    0.7145   -0.4125    0.0000 C   0  0
    0.7145    0.4125    0.0000 C   0  0
    0.0000    0.8250    0.0000 C   0  0
   -0.7145    0.4125    0.0000 C   0  0
   -1.4290    0.8250    0.0000 C   0  0
   -2.1434    0.4125    0.0000 C   0  0
   -2.8592    0.8237    0.0000 N   0  0
   -3.5735    0.4100    0.0000 C   0  0
   -3.5723   -0.2500    0.0000 O   0  0
   -4.2892    0.8213    0.0000 C   0  0
   -5.0706    0.7961    0.0000 C   0  0
   -4.6581    1.5106    0.0000 C   0  0
   -2.1434   -0.4125    0.0000 N   0  0
   -1.4290   -0.8250    0.0000 C   0  0
   -0.7145   -0.4125    0.0000 C   0  0
    0.0000   -0.8250    0.0000 C   0  0
   -2.8601    1.3738    0.0000 H   0  0
  1  2  1  0
  2  3  2  0
  3  4  1  0
  3  5  1  0
  5  6  2  0
  6  7  1  0
  7  8  2  0
  8  2  1  0
  8  9  1  0
  9 10  2  0
 10 11  1  0
 11 12  2  0
 12 13  1  0
 13 14  2  0
 14 15  1  0
 14 21  1  0
 15 16  1  0
 15 25  1  0
 16 17  2  0
 16 18  1  0
 18 19  1  0
 19 20  1  0
 20 18  1  0
 21 22  2  0
 22 23  1  0
 23 12  1  0
 23 24  2  0
 24  9  1  0
M  END
> <CMPD_CHEMBLID>
CHEMBL3685015

> <STANDARD_TYPE>
Ki

> <RELATION>
=

> <STANDARD_VALUE>
1

> <STANDARD_UNITS>
nM

> <Molecular_Weight>
336.81478

$$$$

  SciTegic11272012012D

 32 36  0  0  0  0            999 V2000
    2.1455    0.2461    0.0000 C   0  0
    2.1445   -0.4139    0.0000 C   0  0
    2.8583   -0.8275    0.0000 C   0  0
    2.8570   -1.6525    0.0000 C   0  0
    2.1419   -2.0639    0.0000 N   0  0
    1.4281   -1.6502    0.0000 C   0  0
    1.4293   -0.8252    0.0000 C   0  0
    0.7144   -0.4125    0.0000 C   0  0
    0.7144    0.4125    0.0000 N   0  0
    0.0000    0.8250    0.0000 C   0  0
   -0.7144    0.4125    0.0000 C   0  0
   -0.7144   -0.4125    0.0000 C   0  0
   -1.4290   -0.8250    0.0000 C   0  0
   -1.4290   -1.6500    0.0000 N   0  0
   -0.7144   -2.0625    0.0000 C   0  0
   -0.7127   -2.8879    0.0000 N   0  0
    0.0027   -3.2997    0.0000 C   0  0
    0.5737   -2.9687    0.0000 O   0  0
    0.0044   -4.1251    0.0000 C   0  0
    0.4168   -4.7893    0.0000 C   0  0
   -0.4082   -4.7893    0.0000 C   0  0
    0.0000   -1.6500    0.0000 C   0  0
    0.0000   -0.8250    0.0000 C   0  0
    0.0000    1.6504    0.0000 C   0  0
   -0.7151    2.0618    0.0000 C   0  0
   -0.7164    2.8868    0.0000 C   0  0
   -1.2885    3.2160    0.0000 F   0  0
   -0.0026    3.3005    0.0000 C   0  0
    0.7125    2.8891    0.0000 C   0  0
    0.7138    2.0641    0.0000 C   0  0
    1.2859    1.7350    0.0000 C   0  0
   -1.1886   -3.1638    0.0000 H   0  0
  1  2  1  0
  2  3  2  0
  3  4  1  0
  4  5  2  0
  5  6  1  0
  6  7  2  0
  7  2  1  0
  7  8  1  0
  8  9  2  0
  9 10  1  0
 10 11  2  0
 10 24  1  0
 11 12  1  0
 12 13  2  0
 13 14  1  0
 14 15  2  0
 15 16  1  0
 15 22  1  0
 16 17  1  0
 16 32  1  0
 17 18  2  0
 17 19  1  0
 19 20  1  0
 20 21  1  0
 21 19  1  0
 22 23  2  0
 23  8  1  0
 23 12  1  0
 24 25  2  0
 25 26  1  0
 26 27  1  0
 26 28  2  0
 28 29  1  0
 29 30  2  0
 30 24  1  0
 30 31  1  0
M  END
> <CMPD_CHEMBLID>
CHEMBL3689663

> <STANDARD_TYPE>
Ki

> <RELATION>
=

> <STANDARD_VALUE>
1

> <STANDARD_UNITS>
nM

> <Molecular_Weight>
412.45884

$$$$

  SciTegic11272012012D

 24 26  0  0  0  0            999 V2000
   -0.1742   -2.8725    0.0000 C   0  0
   -0.3790   -2.2450    0.0000 C   0  0
   -1.0247   -2.1088    0.0000 C   0  0
    0.1713   -1.6316    0.0000 N   0  0
    0.9918   -1.7179    0.0000 N   0  0
    1.3273   -0.9642    0.0000 C   0  0
    2.1348   -0.7925    0.0000 C   0  0
    2.7291   -1.3607    0.0000 C   0  0
    3.5209   -1.1288    0.0000 C   0  0
    3.7159   -0.3272    0.0000 C   0  0
    4.3494   -0.1417    0.0000 Br  0  0
    3.1193    0.2426    0.0000 C   0  0
    3.3128    1.0450    0.0000 O   0  0
    2.3275    0.0107    0.0000 C   0  0
    0.7145   -0.4125    0.0000 C   0  0
    0.7145    0.4125    0.0000 C   0  0
    1.4285    0.8267    0.0000 N   0  0
    0.0000    0.8250    0.0000 N   0  0
   -0.7145    0.4125    0.0000 C   0  0
   -0.7145   -0.4125    0.0000 N   0  0
    0.0000   -0.8250    0.0000 C   0  0
    1.4277    1.3767    0.0000 H   0  0
    1.9053    0.5525    0.0000 H   0  0
    2.9145    1.4243    0.0000 H   0  0
  1  2  1  0
  2  3  1  0
  2  4  1  0
  4  5  1  0
  5  6  2  0
  6  7  1  0
  6 15  1  0
  7  8  2  0
  8  9  1  0
  9 10  2  0
 10 11  1  0
 10 12  1  0
 12 13  1  0
 12 14  2  0
 13 24  1  0
 14  7  1  0
 15 16  2  0
 16 17  1  0
 16 18  1  0
 17 22  1  0
 17 23  1  0
 18 19  2  0
 19 20  1  0
 20 21  2  0
 21  4  1  0
 21 15  1  0
M  END
> <CMPD_CHEMBLID>
CHEMBL1241578

> <STANDARD_TYPE>
IC50

> <RELATION>
=

> <STANDARD_VALUE>
1

> <STANDARD_UNITS>
nM

> <Molecular_Weight>
348.19786

$$$$

  SciTegic11272012012D

 24 27  0  0  0  0            999 V2000
    2.1456    0.2461    0.0000 C   0  0
    2.1445   -0.4139    0.0000 C   0  0
    2.8583   -0.8275    0.0000 N   0  0
    2.8570   -1.6525    0.0000 C   0  0
    2.1419   -2.0639    0.0000 C   0  0
    1.4281   -1.6502    0.0000 C   0  0
    1.4293   -0.8252    0.0000 C   0  0
    0.7145   -0.4125    0.0000 C   0  0
    0.7145    0.4125    0.0000 C   0  0
    0.0000    0.8250    0.0000 C   0  0
   -0.7145    0.4125    0.0000 C   0  0
   -1.4290    0.8250    0.0000 C   0  0
   -2.1434    0.4125    0.0000 C   0  0
   -2.8592    0.8237    0.0000 N   0  0
   -3.5735    0.4100    0.0000 C   0  0
   -3.5723   -0.2500    0.0000 O   0  0
   -4.2892    0.8213    0.0000 C   0  0
   -5.0706    0.7961    0.0000 C   0  0
   -4.6581    1.5106    0.0000 C   0  0
   -2.1434   -0.4125    0.0000 N   0  0
   -1.4290   -0.8250    0.0000 C   0  0
   -0.7145   -0.4125    0.0000 C   0  0
    0.0000   -0.8250    0.0000 C   0  0
   -2.8601    1.3738    0.0000 H   0  0
  1  2  1  0
  2  3  2  0
  3  4  1  0
  4  5  2  0
  5  6  1  0
  6  7  2  0
  7  2  1  0
  7  8  1  0
  8  9  2  0
  9 10  1  0
 10 11  2  0
 11 12  1  0
 12 13  2  0
 13 14  1  0
 13 20  1  0
 14 15  1  0
 14 24  1  0
 15 16  2  0
 15 17  1  0
 17 18  1  0
 18 19  1  0
 19 17  1  0
 20 21  2  0
 21 22  1  0
 22 11  1  0
 22 23  2  0
 23  8  1  0
M  END
> <CMPD_CHEMBLID>
CHEMBL3685036

> <STANDARD_TYPE>
Ki

> <RELATION>
=

> <STANDARD_VALUE>
1

> <STANDARD_UNITS>
nM

> <Molecular_Weight>
303.35778

$$$$

  SciTegic11272012012D

 27 31  0  0  0  0            999 V2000
    0.8551   -1.9812    0.0000 O   0  0
    1.4273   -1.6521    0.0000 C   0  0
    1.4285   -0.8267    0.0000 N   0  0
    0.7144   -0.4125    0.0000 C   0  0
    0.7144    0.4125    0.0000 C   0  0
    0.0000    0.8250    0.0000 C   0  0
    0.0000    1.6500    0.0000 C   0  0
   -0.7145    2.0625    0.0000 C   0  0
   -1.4290    1.6500    0.0000 C   0  0
   -1.4290    0.8250    0.0000 C   0  0
   -0.7144    0.4125    0.0000 C   0  0
   -0.7144   -0.4125    0.0000 C   0  0
    0.0000   -0.8250    0.0000 N   0  0
   -2.1438    2.0627    0.0000 C   0  0
   -2.1452    2.8877    0.0000 C   0  0
   -2.8603    3.2991    0.0000 C   0  0
   -3.5741    2.8855    0.0000 C   0  0
   -4.3586    3.1391    0.0000 N   0  0
   -4.8425    2.4709    0.0000 C   0  0
   -4.3565    1.8043    0.0000 C   0  0
   -3.5728    2.0605    0.0000 C   0  0
   -2.8576    1.6491    0.0000 C   0  0
    2.1413   -2.0663    0.0000 C   0  0
    2.5103   -2.7557    0.0000 C   0  0
    2.9228   -2.0412    0.0000 C   0  0
   -4.5294    3.6620    0.0000 H   0  0
    1.9053   -0.5525    0.0000 H   0  0
  1  2  2  0
  2  3  1  0
  2 23  1  0
  3  4  1  0
  3 27  1  0
  4  5  2  0
  5  6  1  0
  6  7  2  0
  7  8  1  0
  8  9  2  0
  9 10  1  0
  9 14  1  0
 10 11  2  0
 11  6  1  0
 11 12  1  0
 12 13  2  0
 13  4  1  0
 14 15  2  0
 15 16  1  0
 16 17  2  0
 17 18  1  0
 18 19  1  0
 18 26  1  0
 19 20  2  0
 20 21  1  0
 21 17  1  0
 21 22  2  0
 22 14  1  0
 23 24  1  0
 24 25  1  0
 25 23  1  0
M  END
> <CMPD_CHEMBLID>
CHEMBL3685037

> <STANDARD_TYPE>
Ki

> <RELATION>
=

> <STANDARD_VALUE>
1

> <STANDARD_UNITS>
nM

> <Molecular_Weight>
327.37918

$$$$

  SciTegic11272012012D

 36 40  0  0  0  0            999 V2000
    2.1456    0.2461    0.0000 C   0  0
    2.1445   -0.4139    0.0000 C   0  0
    2.8584   -0.8275    0.0000 C   0  0
    2.8570   -1.6525    0.0000 C   0  0
    2.1419   -2.0639    0.0000 C   0  0
    1.4281   -1.6503    0.0000 C   0  0
    1.4293   -0.8252    0.0000 C   0  0
    0.7145   -0.4125    0.0000 C   0  0
    0.7145    0.4125    0.0000 C   0  0
    0.0000    0.8250    0.0000 C   0  0
   -0.7145    0.4125    0.0000 C   0  0
   -1.4290    0.8250    0.0000 C   0  0
   -2.1434    0.4125    0.0000 C   0  0
   -2.8592    0.8238    0.0000 N   0  0
   -3.5735    0.4100    0.0000 C   0  0
   -3.5723   -0.2500    0.0000 O   0  0
   -4.2892    0.8213    0.0000 C   0  0
   -5.0707    0.7961    0.0000 C   0  0
   -4.6582    1.5106    0.0000 C   0  0
   -2.1434   -0.4125    0.0000 N   0  0
   -1.4290   -0.8250    0.0000 C   0  0
   -0.7145   -0.4125    0.0000 C   0  0
    0.0000   -0.8250    0.0000 C   0  0
    2.1389   -2.8894    0.0000 C   0  0
    2.7094   -3.2213    0.0000 O   0  0
    1.4228   -3.3000    0.0000 N   0  0
    1.4198   -4.1254    0.0000 C   0  0
    0.8471   -4.4535    0.0000 C   0  0
    2.1444   -3.7749    0.0000 C   0  0
    2.6943   -4.3899    0.0000 C   0  0
    2.2793   -5.1029    0.0000 S   0  0
    2.9365   -5.1644    0.0000 O   0  0
    1.8816   -5.6297    0.0000 O   0  0
    1.4729   -4.9286    0.0000 C   0  0
    0.9474   -3.0234    0.0000 H   0  0
   -2.8602    1.3738    0.0000 H   0  0
  1  2  1  0
  2  3  2  0
  3  4  1  0
  4  5  2  0
  5  6  1  0
  5 24  1  0
  6  7  2  0
  7  2  1  0
  7  8  1  0
  8  9  2  0
  9 10  1  0
 10 11  2  0
 11 12  1  0
 12 13  2  0
 13 14  1  0
 13 20  1  0
 14 15  1  0
 14 36  1  0
 15 16  2  0
 15 17  1  0
 17 18  1  0
 18 19  1  0
 19 17  1  0
 20 21  2  0
 21 22  1  0
 22 11  1  0
 22 23  2  0
 23  8  1  0
 24 25  2  0
 24 26  1  0
 26 27  1  0
 26 35  1  0
 27 28  1  0
 27 29  1  0
 29 30  1  0
 30 31  1  0
 31 32  2  0
 31 33  2  0
 31 34  1  0
 34 27  1  0
M  END
> <CMPD_CHEMBLID>
CHEMBL3689611

> <STANDARD_TYPE>
Ki

> <RELATION>
=

> <STANDARD_VALUE>
1

> <STANDARD_UNITS>
nM

> <Molecular_Weight>
477.57528

$$$$

  SciTegic11272012012D

 32 35  0  0  0  0            999 V2000
    0.1281   -5.6896    0.0000 C   0  0
    0.7006   -5.3613    0.0000 O   0  0
    0.7037   -4.5359    0.0000 C   0  0
    1.4198   -4.1253    0.0000 C   0  0
    1.4227   -3.2999    0.0000 N   0  0
    2.1388   -2.8893    0.0000 C   0  0
    2.7094   -3.2212    0.0000 O   0  0
    2.1419   -2.0639    0.0000 C   0  0
    2.8570   -1.6525    0.0000 C   0  0
    2.8583   -0.8275    0.0000 C   0  0
    2.1445   -0.4139    0.0000 C   0  0
    2.1455    0.2461    0.0000 C   0  0
    1.4293   -0.8252    0.0000 C   0  0
    1.4281   -1.6502    0.0000 C   0  0
    0.7144   -0.4125    0.0000 C   0  0
    0.7144    0.4125    0.0000 C   0  0
    0.0000    0.8250    0.0000 C   0  0
   -0.7144    0.4125    0.0000 C   0  0
   -1.4290    0.8250    0.0000 C   0  0
   -2.1434    0.4125    0.0000 C   0  0
   -2.8591    0.8237    0.0000 N   0  0
   -3.5734    0.4100    0.0000 C   0  0
   -3.5722   -0.2500    0.0000 O   0  0
   -4.2891    0.8213    0.0000 C   0  0
   -5.0706    0.7961    0.0000 C   0  0
   -4.6581    1.5106    0.0000 C   0  0
   -2.1434   -0.4125    0.0000 N   0  0
   -1.4290   -0.8250    0.0000 C   0  0
   -0.7144   -0.4125    0.0000 C   0  0
    0.0000   -0.8250    0.0000 C   0  0
   -2.8601    1.3737    0.0000 H   0  0
    0.9474   -3.0233    0.0000 H   0  0
  1  2  1  0
  2  3  1  0
  3  4  1  0
  4  5  1  0
  5  6  1  0
  5 32  1  0
  6  7  2  0
  6  8  1  0
  8  9  2  0
  9 10  1  0
 10 11  2  0
 11 12  1  0
 11 13  1  0
 13 14  2  0
 13 15  1  0
 14  8  1  0
 15 16  2  0
 16 17  1  0
 17 18  2  0
 18 19  1  0
 19 20  2  0
 20 21  1  0
 20 27  1  0
 21 22  1  0
 21 31  1  0
 22 23  2  0
 22 24  1  0
 24 25  1  0
 25 26  1  0
 26 24  1  0
 27 28  2  0
 28 29  1  0
 29 18  1  0
 29 30  2  0
 30 15  1  0
M  END
> <CMPD_CHEMBLID>
CHEMBL3689614

> <STANDARD_TYPE>
Ki

> <RELATION>
=

> <STANDARD_VALUE>
1

> <STANDARD_UNITS>
nM

> <Molecular_Weight>
403.4736

$$$$

  SciTegic11272012012D

 27 30  0  0  0  0            999 V2000
    2.1455    0.2461    0.0000 C   0  0
    2.1445   -0.4139    0.0000 C   0  0
    2.8583   -0.8275    0.0000 C   0  0
    2.8570   -1.6525    0.0000 C   0  0
    2.1419   -2.0639    0.0000 C   0  0
    2.1408   -2.7239    0.0000 F   0  0
    1.4281   -1.6502    0.0000 C   0  0
    1.4293   -0.8252    0.0000 C   0  0
    0.7144   -0.4125    0.0000 C   0  0
    0.7144    0.4125    0.0000 C   0  0
    0.0000    0.8250    0.0000 C   0  0
    0.0000    1.6500    0.0000 C   0  0
   -0.7145    2.0625    0.0000 N   0  0
   -1.4290    1.6500    0.0000 C   0  0
   -2.1447    2.0612    0.0000 N   0  0
   -2.8590    1.6475    0.0000 C   0  0
   -2.8578    0.9875    0.0000 O   0  0
   -3.5747    2.0588    0.0000 C   0  0
   -4.3561    2.0337    0.0000 C   0  0
   -3.9436    2.7481    0.0000 C   0  0
   -1.4290    0.8250    0.0000 C   0  0
   -0.7144    0.4125    0.0000 C   0  0
   -0.7144   -0.4125    0.0000 C   0  0
    0.0000   -0.8250    0.0000 N   0  0
   -1.4293   -0.8252    0.0000 C   0  0
   -2.0009   -1.1552    0.0000 N   0  0
   -2.1457    2.6112    0.0000 H   0  0
  1  2  1  0
  2  3  2  0
  3  4  1  0
  4  5  2  0
  5  6  1  0
  5  7  1  0
  7  8  2  0
  8  2  1  0
  8  9  1  0
  9 10  2  0
 10 11  1  0
 11 12  2  0
 12 13  1  0
 13 14  2  0
 14 15  1  0
 14 21  1  0
 15 16  1  0
 15 27  1  0
 16 17  2  0
 16 18  1  0
 18 19  1  0
 19 20  1  0
 20 18  1  0
 21 22  2  0
 22 11  1  0
 22 23  1  0
 23 24  2  0
 23 25  1  0
 24  9  1  0
 25 26  3  0
M  END
> <CMPD_CHEMBLID>
CHEMBL3689650

> <STANDARD_TYPE>
Ki

> <RELATION>
=

> <STANDARD_VALUE>
1

> <STANDARD_UNITS>
nM

> <Molecular_Weight>
346.3577

$$$$

  SciTegic11272012012D

 27 30  0  0  0  0            999 V2000
    1.5663   -3.2177    0.0000 C   0  0
    2.1389   -2.8894    0.0000 N   0  0
    2.7094   -3.2213    0.0000 C   0  0
    2.1419   -2.0639    0.0000 C   0  0
    2.8570   -1.6525    0.0000 C   0  0
    2.8583   -0.8275    0.0000 C   0  0
    2.1445   -0.4139    0.0000 C   0  0
    2.1456    0.2461    0.0000 C   0  0
    1.4293   -0.8252    0.0000 C   0  0
    1.4281   -1.6502    0.0000 C   0  0
    0.7145   -0.4125    0.0000 C   0  0
    0.7145    0.4125    0.0000 C   0  0
    0.0000    0.8250    0.0000 C   0  0
   -0.7145    0.4125    0.0000 C   0  0
   -1.4290    0.8250    0.0000 C   0  0
   -2.1434    0.4125    0.0000 C   0  0
   -2.8592    0.8237    0.0000 N   0  0
   -3.5735    0.4100    0.0000 C   0  0
   -3.5723   -0.2500    0.0000 O   0  0
   -4.2892    0.8213    0.0000 C   0  0
   -5.0706    0.7961    0.0000 C   0  0
   -4.6581    1.5106    0.0000 C   0  0
   -2.1434   -0.4125    0.0000 N   0  0
   -1.4290   -0.8250    0.0000 C   0  0
   -0.7145   -0.4125    0.0000 C   0  0
    0.0000   -0.8250    0.0000 C   0  0
   -2.8601    1.3738    0.0000 H   0  0
  1  2  1  0
  2  3  1  0
  2  4  1  0
  4  5  2  0
  5  6  1  0
  6  7  2  0
  7  8  1  0
  7  9  1  0
  9 10  2  0
  9 11  1  0
 10  4  1  0
 11 12  2  0
 12 13  1  0
 13 14  2  0
 14 15  1  0
 15 16  2  0
 16 17  1  0
 16 23  1  0
 17 18  1  0
 17 27  1  0
 18 19  2  0
 18 20  1  0
 20 21  1  0
 21 22  1  0
 22 20  1  0
 23 24  2  0
 24 25  1  0
 25 14  1  0
 25 26  2  0
 26 11  1  0
M  END
> <CMPD_CHEMBLID>
CHEMBL3685077

> <STANDARD_TYPE>
Ki

> <RELATION>
=

> <STANDARD_VALUE>
1

> <STANDARD_UNITS>
nM

> <Molecular_Weight>
345.43752

$$$$

  SciTegic11272012012D

 25 28  0  0  0  0            999 V2000
    0.8551   -1.9812    0.0000 O   0  0
    1.4273   -1.6521    0.0000 C   0  0
    1.4285   -0.8267    0.0000 N   0  0
    0.7144   -0.4125    0.0000 C   0  0
    0.7144    0.4125    0.0000 C   0  0
    0.0000    0.8250    0.0000 C   0  0
    0.0000    1.6500    0.0000 C   0  0
   -0.7145    2.0625    0.0000 C   0  0
   -1.4290    1.6500    0.0000 C   0  0
   -2.1447    2.0612    0.0000 N   0  0
   -2.8590    1.6475    0.0000 C   0  0
   -3.5749    2.0575    0.0000 C   0  0
   -4.2879    1.6425    0.0000 C   0  0
   -4.2851    0.8175    0.0000 C   0  0
   -3.5692    0.4075    0.0000 C   0  0
   -2.8561    0.8225    0.0000 C   0  0
   -1.4290    0.8250    0.0000 C   0  0
   -0.7144    0.4125    0.0000 C   0  0
   -0.7144   -0.4125    0.0000 C   0  0
    0.0000   -0.8250    0.0000 N   0  0
    2.1413   -2.0663    0.0000 C   0  0
    2.5103   -2.7557    0.0000 C   0  0
    2.9228   -2.0412    0.0000 C   0  0
   -2.1457    2.6112    0.0000 H   0  0
    1.9053   -0.5525    0.0000 H   0  0
  1  2  2  0
  2  3  1  0
  2 21  1  0
  3  4  1  0
  3 25  1  0
  4  5  2  0
  5  6  1  0
  6  7  2  0
  7  8  1  0
  8  9  2  0
  9 10  1  0
  9 17  1  0
 10 11  1  0
 10 24  1  0
 11 12  2  0
 12 13  1  0
 13 14  2  0
 14 15  1  0
 15 16  2  0
 16 11  1  0
 17 18  2  0
 18  6  1  0
 18 19  1  0
 19 20  2  0
 20  4  1  0
 21 22  1  0
 22 23  1  0
 23 21  1  0
M  END
> <CMPD_CHEMBLID>
CHEMBL3685073

> <STANDARD_TYPE>
Ki

> <RELATION>
=

> <STANDARD_VALUE>
1

> <STANDARD_UNITS>
nM

> <Molecular_Weight>
303.35778

$$$$

  SciTegic11272012012D

 25 27  0  0  0  0            999 V2000
    2.1455    0.2461    0.0000 C   0  0
    2.1445   -0.4139    0.0000 C   0  0
    2.8583   -0.8275    0.0000 C   0  0
    2.8570   -1.6525    0.0000 C   0  0
    2.1419   -2.0639    0.0000 C   0  0
    2.1408   -2.7239    0.0000 F   0  0
    1.4281   -1.6502    0.0000 C   0  0
    1.4293   -0.8252    0.0000 C   0  0
    0.7144   -0.4125    0.0000 C   0  0
    0.7144    0.4125    0.0000 C   0  0
    0.0000    0.8250    0.0000 C   0  0
   -0.7144    0.4125    0.0000 C   0  0
   -1.4290    0.8250    0.0000 C   0  0
   -2.1434    0.4125    0.0000 C   0  0
   -2.8591    0.8237    0.0000 N   0  0
   -3.5734    0.4100    0.0000 C   0  0
   -3.5722   -0.2500    0.0000 O   0  0
   -4.2891    0.8213    0.0000 C   0  0
   -4.8602    0.4904    0.0000 F   0  0
   -4.2903    1.4813    0.0000 F   0  0
   -2.1434   -0.4125    0.0000 N   0  0
   -1.4290   -0.8250    0.0000 C   0  0
   -0.7144   -0.4125    0.0000 C   0  0
    0.0000   -0.8250    0.0000 C   0  0
   -2.8601    1.3737    0.0000 H   0  0
  1  2  1  0
  2  3  2  0
  3  4  1  0
  4  5  2  0
  5  6  1  0
  5  7  1  0
  7  8  2  0
  8  2  1  0
  8  9  1  0
  9 10  2  0
 10 11  1  0
 11 12  2  0
 12 13  1  0
 13 14  2  0
 14 15  1  0
 14 21  1  0
 15 16  1  0
 15 25  1  0
 16 17  2  0
 16 18  1  0
 18 19  1  0
 18 20  1  0
 21 22  2  0
 22 23  1  0
 23 12  1  0
 23 24  2  0
 24  9  1  0
M  END
> <CMPD_CHEMBLID>
CHEMBL3685069

> <STANDARD_TYPE>
Ki

> <RELATION>
=

> <STANDARD_VALUE>
1

> <STANDARD_UNITS>
nM

> <Molecular_Weight>
330.30383

$$$$

  SciTegic11272012012D

 40 44  0  0  0  0            999 V2000
    1.2861   -0.7425    0.0000 C   0  0
    0.7144   -0.4125    0.0000 C   0  0
    0.7144    0.4125    0.0000 C   0  0
    0.0000    0.8250    0.0000 C   0  0
   -0.7144    0.4125    0.0000 C   0  0
   -0.7144   -0.4125    0.0000 C   0  0
   -1.4290   -0.8250    0.0000 N   0  0
   -1.4290   -1.6500    0.0000 N   0  0
   -0.7144   -2.0625    0.0000 C   0  0
   -0.7127   -2.8879    0.0000 N   0  0
    0.0027   -3.2997    0.0000 C   0  0
    0.0056   -4.1247    0.0000 C   0  0
    0.7215   -4.5347    0.0000 C   0  0
    1.4345   -4.1197    0.0000 C   0  0
    1.4317   -3.2947    0.0000 C   0  0
    0.7158   -2.8847    0.0000 C   0  0
    2.1508   -4.5300    0.0000 S   0  0
    2.7211   -4.1978    0.0000 O   0  0
    2.7237   -4.8577    0.0000 O   0  0
    2.1542   -5.3554    0.0000 N   0  0
    2.8705   -5.7656    0.0000 C   0  0
    2.8739   -6.5911    0.0000 C   0  0
    3.5902   -7.0014    0.0000 N   0  0
    3.6705   -7.8154    0.0000 C   0  0
    4.4784   -7.9825    0.0000 C   0  0
    4.8870   -7.2657    0.0000 C   0  0
    4.3315   -6.6557    0.0000 C   0  0
    0.0000   -1.6500    0.0000 N   0  0
    0.0000   -0.8250    0.0000 C   0  0
    0.0000    1.6504    0.0000 C   0  0
   -0.7151    2.0618    0.0000 C   0  0
   -0.7164    2.8868    0.0000 C   0  0
   -1.4311    3.2999    0.0000 O   0  0
   -0.0026    3.3005    0.0000 C   0  0
    0.7125    2.8891    0.0000 C   0  0
    0.7138    2.0641    0.0000 C   0  0
    1.2859    1.7350    0.0000 Br  0  0
   -1.4312    3.8499    0.0000 H   0  0
    1.6789   -5.6322    0.0000 H   0  0
   -1.1886   -3.1638    0.0000 H   0  0
  1  2  1  0
  2  3  2  0
  3  4  1  0
  4  5  2  0
  4 30  1  0
  5  6  1  0
  6  7  2  0
  7  8  1  0
  8  9  2  0
  9 10  1  0
  9 28  1  0
 10 11  1  0
 10 40  1  0
 11 12  2  0
 12 13  1  0
 13 14  2  0
 14 15  1  0
 14 17  1  0
 15 16  2  0
 16 11  1  0
 17 18  2  0
 17 19  2  0
 17 20  1  0
 20 21  1  0
 20 39  1  0
 21 22  1  0
 22 23  1  0
 23 24  1  0
 24 25  1  0
 25 26  1  0
 26 27  1  0
 27 23  1  0
 28 29  2  0
 29  2  1  0
 29  6  1  0
 30 31  2  0
 31 32  1  0
 32 33  1  0
 32 34  2  0
 33 38  1  0
 34 35  1  0
 35 36  2  0
 36 30  1  0
 36 37  1  0
M  END
> <CMPD_CHEMBLID>
CHEMBL398279

> <STANDARD_TYPE>
Ki

> <RELATION>
=

> <STANDARD_VALUE>
1

> <STANDARD_UNITS>
nM

> <Molecular_Weight>
583.49998

$$$$

  SciTegic11272012012D

 25 28  0  0  0  0            999 V2000
    0.8560   -1.9794    0.0000 C   0  0
    1.4281   -1.6503    0.0000 C   0  0
    2.1419   -2.0639    0.0000 C   0  0
    2.8570   -1.6525    0.0000 N   0  0
    2.8584   -0.8275    0.0000 C   0  0
    2.1446   -0.4139    0.0000 C   0  0
    2.1456    0.2461    0.0000 C   0  0
    1.4293   -0.8252    0.0000 C   0  0
    0.7145   -0.4125    0.0000 C   0  0
    0.7145    0.4125    0.0000 C   0  0
    0.0000    0.8250    0.0000 C   0  0
   -0.7145    0.4125    0.0000 C   0  0
   -1.4290    0.8250    0.0000 C   0  0
   -2.1435    0.4125    0.0000 C   0  0
   -2.8592    0.8238    0.0000 N   0  0
   -3.5735    0.4100    0.0000 C   0  0
   -3.5723   -0.2500    0.0000 O   0  0
   -4.2892    0.8213    0.0000 C   0  0
   -5.0707    0.7961    0.0000 C   0  0
   -4.6582    1.5106    0.0000 C   0  0
   -2.1435   -0.4125    0.0000 N   0  0
   -1.4290   -0.8250    0.0000 C   0  0
   -0.7145   -0.4125    0.0000 C   0  0
    0.0000   -0.8250    0.0000 C   0  0
   -2.8602    1.3738    0.0000 H   0  0
  1  2  1  0
  2  3  2  0
  3  4  1  0
  4  5  2  0
  5  6  1  0
  6  7  1  0
  6  8  2  0
  8  2  1  0
  8  9  1  0
  9 10  2  0
 10 11  1  0
 11 12  2  0
 12 13  1  0
 13 14  2  0
 14 15  1  0
 14 21  1  0
 15 16  1  0
 15 25  1  0
 16 17  2  0
 16 18  1  0
 18 19  1  0
 19 20  1  0
 20 18  1  0
 21 22  2  0
 22 23  1  0
 23 12  1  0
 23 24  2  0
 24  9  1  0
M  END
> <CMPD_CHEMBLID>
CHEMBL3689618

> <STANDARD_TYPE>
Ki

> <RELATION>
=

> <STANDARD_VALUE>
1

> <STANDARD_UNITS>
nM

> <Molecular_Weight>
317.38436

$$$$

  SciTegic11272012012D

 32 36  0  0  0  0            999 V2000
    0.8560   -1.9793    0.0000 Cl  0  0
    1.4281   -1.6502    0.0000 C   0  0
    2.1419   -2.0639    0.0000 C   0  0
    2.8570   -1.6525    0.0000 C   0  0
    2.8583   -0.8275    0.0000 C   0  0
    2.1445   -0.4139    0.0000 C   0  0
    2.1455    0.2461    0.0000 Cl  0  0
    1.4293   -0.8252    0.0000 C   0  0
    0.7144   -0.4125    0.0000 C   0  0
    0.7144    0.4125    0.0000 C   0  0
    0.0000    0.8250    0.0000 C   0  0
   -0.7144    0.4125    0.0000 C   0  0
   -1.4290    0.8250    0.0000 C   0  0
   -2.1434    0.4125    0.0000 C   0  0
   -2.8591    0.8237    0.0000 N   0  0
   -3.5734    0.4100    0.0000 C   0  0
   -4.2893    0.8200    0.0000 C   0  0
   -5.0024    0.4050    0.0000 C   0  0
   -4.9995   -0.4200    0.0000 N   0  0
   -4.2836   -0.8300    0.0000 C   0  0
   -3.5706   -0.4150    0.0000 N   0  0
   -4.2808   -1.6554    0.0000 N   0  0
   -4.9932   -2.0716    0.0000 C   0  0
   -4.9890   -2.8966    0.0000 C   0  0
   -4.2725   -3.3054    0.0000 O   0  0
   -3.5600   -2.8894    0.0000 C   0  0
   -3.5642   -2.0644    0.0000 C   0  0
   -2.1434   -0.4125    0.0000 N   0  0
   -1.4290   -0.8250    0.0000 C   0  0
   -0.7144   -0.4125    0.0000 C   0  0
    0.0000   -0.8250    0.0000 C   0  0
   -2.8601    1.3737    0.0000 H   0  0
  1  2  1  0
  2  3  2  0
  3  4  1  0
  4  5  2  0
  5  6  1  0
  6  7  1  0
  6  8  2  0
  8  2  1  0
  8  9  1  0
  9 10  2  0
 10 11  1  0
 11 12  2  0
 12 13  1  0
 13 14  2  0
 14 15  1  0
 14 28  1  0
 15 16  1  0
 15 32  1  0
 16 17  2  0
 17 18  1  0
 18 19  2  0
 19 20  1  0
 20 21  2  0
 20 22  1  0
 21 16  1  0
 22 23  1  0
 23 24  1  0
 24 25  1  0
 25 26  1  0
 26 27  1  0
 27 22  1  0
 28 29  2  0
 29 30  1  0
 30 12  1  0
 30 31  2  0
 31  9  1  0
M  END
> <CMPD_CHEMBLID>
CHEMBL3689710

> <STANDARD_TYPE>
Ki

> <RELATION>
=

> <STANDARD_VALUE>
1.03

> <STANDARD_UNITS>
nM

> <Molecular_Weight>
452.33586

$$$$

  SciTegic11272012012D

 27 30  0  0  0  0            999 V2000
    2.1455    0.2461    0.0000 C   0  0
    2.1445   -0.4139    0.0000 C   0  0
    2.8583   -0.8275    0.0000 C   0  0
    3.4304   -0.4984    0.0000 F   0  0
    2.8570   -1.6525    0.0000 C   0  0
    2.1419   -2.0639    0.0000 N   0  0
    1.4281   -1.6502    0.0000 C   0  0
    1.4293   -0.8252    0.0000 C   0  0
    0.7144   -0.4125    0.0000 C   0  0
    0.7144    0.4125    0.0000 C   0  0
    0.0000    0.8250    0.0000 C   0  0
    0.0000    1.6500    0.0000 C   0  0
   -0.7145    2.0625    0.0000 N   0  0
   -1.4290    1.6500    0.0000 C   0  0
   -2.1447    2.0612    0.0000 N   0  0
   -2.8590    1.6475    0.0000 C   0  0
   -2.8578    0.9875    0.0000 O   0  0
   -3.5747    2.0588    0.0000 C   0  0
   -3.9436    2.7481    0.0000 C   0  0
   -4.3561    2.0337    0.0000 C   0  0
   -4.9223    1.6946    0.0000 F   0  0
   -1.4290    0.8250    0.0000 C   0  0
   -0.7144    0.4125    0.0000 C   0  0
   -0.7144   -0.4125    0.0000 C   0  0
    0.0000   -0.8250    0.0000 N   0  3
    0.0000   -1.4850    0.0000 O   0  5
   -2.1457    2.6112    0.0000 H   0  0
  1  2  1  0
  2  3  2  0
  3  4  1  0
  3  5  1  0
  5  6  2  0
  6  7  1  0
  7  8  2  0
  8  2  1  0
  8  9  1  0
  9 10  2  0
 10 11  1  0
 11 12  2  0
 12 13  1  0
 13 14  2  0
 14 15  1  0
 14 22  1  0
 15 16  1  0
 15 27  1  0
 16 17  2  0
 16 18  1  0
 18 19  1  0
 19 20  1  0
 20 18  1  0
 20 21  1  0
 22 23  2  0
 23 11  1  0
 23 24  1  0
 24 25  2  0
 25  9  1  0
 25 26  1  0
M  CHG  2  25   1  26  -1
M  END
> <CMPD_CHEMBLID>
CHEMBL3689717

> <STANDARD_TYPE>
Ki

> <RELATION>
=

> <STANDARD_VALUE>
1.04

> <STANDARD_UNITS>
nM

> <Molecular_Weight>
356.32617

$$$$

  SciTegic11272012012D

 25 28  0  0  0  0            999 V2000
    2.1455    0.2461    0.0000 C   0  0
    2.1445   -0.4139    0.0000 C   0  0
    2.8583   -0.8275    0.0000 C   0  0
    2.8570   -1.6525    0.0000 C   0  0
    2.1419   -2.0639    0.0000 N   0  0
    1.4281   -1.6502    0.0000 C   0  0
    1.4293   -0.8252    0.0000 C   0  0
    0.7144   -0.4125    0.0000 C   0  0
    0.7144    0.4125    0.0000 C   0  0
    0.0000    0.8250    0.0000 C   0  0
   -0.7144    0.4125    0.0000 C   0  0
   -1.4290    0.8250    0.0000 C   0  0
   -2.1434    0.4125    0.0000 C   0  0
   -2.8591    0.8237    0.0000 N   0  0
   -3.5734    0.4100    0.0000 C   0  0
   -3.5722   -0.2500    0.0000 O   0  0
   -4.2891    0.8213    0.0000 C   0  0
   -5.0614    0.5935    0.0000 C   0  0
   -5.2749    1.3904    0.0000 C   0  0
   -4.4780    1.6039    0.0000 O   0  0
   -2.1434   -0.4125    0.0000 N   0  0
   -1.4290   -0.8250    0.0000 C   0  0
   -0.7144   -0.4125    0.0000 C   0  0
    0.0000   -0.8250    0.0000 C   0  0
   -2.8601    1.3737    0.0000 H   0  0
  1  2  1  0
  2  3  2  0
  3  4  1  0
  4  5  2  0
  5  6  1  0
  6  7  2  0
  7  2  1  0
  7  8  1  0
  8  9  2  0
  9 10  1  0
 10 11  2  0
 11 12  1  0
 12 13  2  0
 13 14  1  0
 13 21  1  0
 14 15  1  0
 14 25  1  0
 15 16  2  0
 15 17  1  0
 17 18  1  0
 18 19  1  0
 19 20  1  0
 20 17  1  0
 21 22  2  0
 22 23  1  0
 23 11  1  0
 23 24  2  0
 24  8  1  0
M  END
> <CMPD_CHEMBLID>
CHEMBL3689692

> <STANDARD_TYPE>
Ki

> <RELATION>
=

> <STANDARD_VALUE>
1.19

> <STANDARD_UNITS>
nM

> <Molecular_Weight>
319.35718

$$$$

  SciTegic11272012012D

 41 45  0  0  0  0            999 V2000
    3.5743   -5.2011    0.0000 C   0  0
    3.5730   -4.5411    0.0000 N   0  0
    4.1440   -4.2101    0.0000 C   0  0
    2.8575   -4.1293    0.0000 C   0  0
    2.8558   -3.3038    0.0000 C   0  0
    2.1414   -2.8913    0.0000 C   0  0
    2.1413   -2.0663    0.0000 C   0  0
    2.8559   -1.6538    0.0000 C   0  0
    3.5703   -2.0664    0.0000 C   0  0
    3.5703   -2.8914    0.0000 C   0  0
    4.2852   -1.6537    0.0000 C   0  0
    4.2857   -0.9937    0.0000 F   0  0
    4.8567   -1.9838    0.0000 F   0  0
    4.8569   -1.3240    0.0000 F   0  0
    1.4273   -1.6521    0.0000 C   0  0
    0.8551   -1.9812    0.0000 O   0  0
    1.4285   -0.8267    0.0000 N   0  0
    0.7144   -0.4125    0.0000 C   0  0
    0.7144    0.4125    0.0000 C   0  0
    0.0000    0.8250    0.0000 C   0  0
   -0.7144    0.4125    0.0000 C   0  0
   -1.4290    0.8250    0.0000 C   0  0
   -2.1434    0.4125    0.0000 C   0  0
   -2.1434   -0.4125    0.0000 C   0  0
   -2.8574   -0.8267    0.0000 O   0  0
   -2.8563   -1.6521    0.0000 C   0  0
   -2.1403   -2.0622    0.0000 C   0  0
   -2.1375   -2.8872    0.0000 C   0  0
   -2.8505   -3.3022    0.0000 N   0  0
   -3.5664   -2.8922    0.0000 C   0  0
   -4.2794   -3.3071    0.0000 N   0  0
   -4.9954   -2.8971    0.0000 C   0  0
   -5.5658   -3.2291    0.0000 O   0  0
   -4.9982   -2.0721    0.0000 C   0  0
   -4.2852   -1.6571    0.0000 C   0  0
   -3.5693   -2.0672    0.0000 C   0  0
   -1.4290   -0.8250    0.0000 C   0  0
   -0.7144   -0.4125    0.0000 C   0  0
    0.0000   -0.8250    0.0000 C   0  0
   -4.2776   -3.8571    0.0000 H   0  0
    1.9053   -0.5525    0.0000 H   0  0
  1  2  1  0
  2  3  1  0
  2  4  1  0
  4  5  1  0
  5  6  2  0
  6  7  1  0
  7  8  2  0
  7 15  1  0
  8  9  1  0
  9 10  2  0
  9 11  1  0
 10  5  1  0
 11 12  1  0
 11 13  1  0
 11 14  1  0
 15 16  2  0
 15 17  1  0
 17 18  1  0
 17 41  1  0
 18 19  1  0
 19 20  1  0
 20 21  1  0
 21 22  2  0
 22 23  1  0
 23 24  2  0
 24 25  1  0
 24 37  1  0
 25 26  1  0
 26 27  2  0
 27 28  1  0
 28 29  2  0
 29 30  1  0
 30 31  1  0
 31 32  1  0
 31 40  1  0
 32 33  2  0
 32 34  1  0
 34 35  1  0
 35 36  1  0
 36 26  1  0
 36 30  2  0
 37 38  2  0
 38 21  1  0
 38 39  1  0
 39 18  1  0
M  END
> <CMPD_CHEMBLID>
CHEMBL1688860

> <STANDARD_TYPE>
IC50

> <RELATION>
=

> <STANDARD_VALUE>
1.2

> <STANDARD_UNITS>
nM

> <Molecular_Weight>
538.56077

$$$$

  SciTegic11272012012D

 30 33  0  0  0  0            999 V2000
   -0.6479   -5.4022    0.0000 C   0  0
   -0.5290   -4.7530    0.0000 C   0  0
    0.0927   -4.5315    0.0000 C   0  0
   -1.1576   -4.2178    0.0000 O   0  0
   -1.0092   -3.4073    0.0000 C   0  0
   -0.2646   -3.0520    0.0000 C   0  0
   -0.3810   -2.2450    0.0000 C   0  0
   -1.1836   -2.0838    0.0000 N   0  0
   -1.5772   -2.8089    0.0000 N   0  0
    0.1713   -1.6316    0.0000 N   0  0
    0.9918   -1.7179    0.0000 C   0  0
    1.3273   -0.9642    0.0000 N   0  0
    0.7145   -0.4125    0.0000 C   0  0
    0.7145    0.4125    0.0000 C   0  0
    0.0000    0.8250    0.0000 C   0  0
   -0.7145    0.4125    0.0000 C   0  0
   -1.4302    0.8238    0.0000 N   0  0
   -2.1445    0.4100    0.0000 C   0  0
   -2.1433   -0.2500    0.0000 C   0  0
   -2.8602    0.8213    0.0000 C   0  0
   -3.5747    0.4088    0.0000 C   0  0
   -4.2893    0.8213    0.0000 C   0  0
   -4.2893    1.6463    0.0000 C   0  0
   -4.8609    1.9763    0.0000 F   0  0
   -3.5748    2.0588    0.0000 C   0  0
   -2.8603    1.6464    0.0000 N   0  0
   -0.7145   -0.4125    0.0000 N   0  0
    0.0000   -0.8250    0.0000 C   0  0
   -1.4312    1.3738    0.0000 H   0  0
   -2.1224   -2.8807    0.0000 H   0  0
  1  2  1  0
  2  3  1  0
  2  4  1  0
  4  5  1  0
  5  6  2  0
  6  7  1  0
  7  8  2  0
  7 10  1  0
  8  9  1  0
  9  5  1  0
  9 30  1  0
 10 11  1  0
 11 12  2  0
 12 13  1  0
 13 14  2  0
 14 15  1  0
 15 16  2  0
 16 17  1  0
 16 27  1  0
 17 18  1  0
 17 29  1  0
 18 19  1  0
 18 20  1  0
 20 21  2  0
 21 22  1  0
 22 23  2  0
 23 24  1  0
 23 25  1  0
 25 26  2  0
 26 20  1  0
 27 28  2  0
 28 10  1  0
 28 13  1  0
M  END
> <CMPD_CHEMBLID>
CHEMBL2151321

> <STANDARD_TYPE>
IC50

> <RELATION>
=

> <STANDARD_VALUE>
1.2

> <STANDARD_UNITS>
nM

> <Molecular_Weight>
381.4068

$$$$

  SciTegic11272012012D

 26 29  0  0  0  0            999 V2000
    1.4302   -0.8237    0.0000 N   0  0
    0.7145   -0.4125    0.0000 C   0  0
    0.7145    0.4125    0.0000 N   0  0
    0.0000    0.8250    0.0000 C   0  0
   -0.7145    0.4125    0.0000 N   0  0
   -0.7145   -0.4125    0.0000 C   0  0
    0.0000   -0.8250    0.0000 C   0  0
   -0.1713   -1.6316    0.0000 C   0  0
   -0.9918   -1.7178    0.0000 N   0  0
   -1.3273   -0.9642    0.0000 N   0  0
   -2.1348   -0.7925    0.0000 C   0  0
   -2.7753   -1.2969    0.0000 C   0  0
   -3.4553   -0.8297    0.0000 C   0  0
   -3.2211   -0.0386    0.0000 C   0  0
   -2.3964   -0.0169    0.0000 C   0  0
    0.3811   -2.2450    0.0000 C   0  0
    1.1959   -2.1345    0.0000 C   0  0
    1.7002   -2.7874    0.0000 C   0  0
    1.3870   -3.5506    0.0000 C   0  0
    1.7905   -4.0729    0.0000 Cl  0  0
    0.5694   -3.6610    0.0000 C   0  0
    0.2544   -4.4240    0.0000 O   0  0
    0.0651   -3.0081    0.0000 C   0  0
   -0.2907   -4.4968    0.0000 H   0  0
    1.9062   -0.5481    0.0000 H   0  0
    1.4312   -1.3738    0.0000 H   0  0
  1  2  1  0
  1 25  1  0
  1 26  1  0
  2  3  2  0
  3  4  1  0
  4  5  2  0
  5  6  1  0
  6  7  2  0
  7  2  1  0
  7  8  1  0
  8  9  2  0
  8 16  1  0
  9 10  1  0
 10  6  1  0
 10 11  1  0
 11 12  1  0
 12 13  1  0
 13 14  1  0
 14 15  1  0
 15 11  1  0
 16 17  2  0
 17 18  1  0
 18 19  2  0
 19 20  1  0
 19 21  1  0
 21 22  1  0
 21 23  2  0
 22 24  1  0
 23 16  1  0
M  END
> <CMPD_CHEMBLID>
CHEMBL1241676

> <STANDARD_TYPE>
IC50

> <RELATION>
=

> <STANDARD_VALUE>
1.2

> <STANDARD_UNITS>
nM

> <Molecular_Weight>
329.78414

$$$$

  SciTegic11272012012D

 39 43  0  0  0  0            999 V2000
    4.6838   -1.6183    0.0000 C   0  0
    4.0272   -1.6849    0.0000 C   0  0
    3.5441   -1.0156    0.0000 C   0  0
    2.7242   -1.0988    0.0000 N   0  0
    2.1731   -0.4848    0.0000 C   0  0
    1.4293   -0.8252    0.0000 C   0  0
    1.5039   -1.6398    0.0000 C   0  0
    2.3106   -1.8126    0.0000 N   0  0
    0.7145   -0.4125    0.0000 C   0  0
    0.7145    0.4125    0.0000 C   0  0
    0.0000    0.8250    0.0000 N   0  0
   -0.7145    0.4125    0.0000 C   0  0
   -1.4285    0.8267    0.0000 N   0  0
   -0.7145   -0.4125    0.0000 C   0  0
   -1.3273   -0.9642    0.0000 C   0  0
   -0.9918   -1.7178    0.0000 C   0  0
   -0.1713   -1.6316    0.0000 S   0  0
    0.0000   -0.8250    0.0000 C   0  0
   -2.1347   -0.7924    0.0000 C   0  0
   -2.4465   -0.0316    0.0000 C   0  0
   -3.2641    0.0788    0.0000 C   0  0
   -3.7684   -0.5741    0.0000 C   0  0
   -4.5867   -0.4654    0.0000 N   0  0
   -5.0904   -1.1194    0.0000 C   0  0
   -4.8387   -1.7295    0.0000 O   0  0
   -5.9086   -1.0107    0.0000 N   0  0
   -6.4123   -1.6646    0.0000 C   0  0
   -7.2304   -1.5572    0.0000 C   0  0
   -7.7325   -2.2118    0.0000 C   0  0
   -7.4165   -2.9739    0.0000 C   0  0
   -6.5986   -3.0815    0.0000 C   0  0
   -6.3459   -3.6912    0.0000 F   0  0
   -6.0965   -2.4268    0.0000 C   0  0
   -3.4552   -1.3373    0.0000 C   0  0
   -2.6375   -1.4477    0.0000 C   0  0
   -6.1184   -0.5022    0.0000 H   0  0
   -4.7964    0.0430    0.0000 H   0  0
   -1.4277    1.3767    0.0000 H   0  0
   -1.9053    0.5525    0.0000 H   0  0
  1  2  1  0
  2  3  1  0
  3  4  1  0
  4  5  1  0
  5  6  2  0
  6  7  1  0
  6  9  1  0
  7  8  2  0
  8  4  1  0
  9 10  2  0
 10 11  1  0
 11 12  2  0
 12 13  1  0
 12 14  1  0
 13 38  1  0
 13 39  1  0
 14 15  1  0
 15 16  2  0
 15 19  1  0
 16 17  1  0
 17 18  1  0
 18  9  1  0
 18 14  2  0
 19 20  2  0
 20 21  1  0
 21 22  2  0
 22 23  1  0
 22 34  1  0
 23 24  1  0
 23 37  1  0
 24 25  2  0
 24 26  1  0
 26 27  1  0
 26 36  1  0
 27 28  2  0
 28 29  1  0
 29 30  2  0
 30 31  1  0
 31 32  1  0
 31 33  2  0
 33 27  1  0
 34 35  2  0
 35 19  1  0
M  END
> <CMPD_CHEMBLID>
CHEMBL1993941

> <STANDARD_TYPE>
Ki

> <RELATION>
=

> <STANDARD_VALUE>
1.26

> <STANDARD_UNITS>
nM

> <Molecular_Weight>
486.56382

$$$$

  SciTegic11272012012D

 36 40  0  0  0  0            999 V2000
    1.2861   -0.7425    0.0000 C   0  0
    0.7144   -0.4125    0.0000 C   0  0
    0.7144    0.4125    0.0000 C   0  0
    0.0000    0.8250    0.0000 C   0  0
   -0.7144    0.4125    0.0000 C   0  0
   -0.7144   -0.4125    0.0000 C   0  0
   -1.4290   -0.8250    0.0000 N   0  0
   -1.4290   -1.6500    0.0000 N   0  0
   -0.7144   -2.0625    0.0000 C   0  0
   -0.7127   -2.8879    0.0000 N   0  0
    0.0027   -3.2997    0.0000 C   0  0
    0.0056   -4.1247    0.0000 C   0  0
    0.7215   -4.5347    0.0000 C   0  0
    1.4345   -4.1197    0.0000 C   0  0
    2.1517   -4.5285    0.0000 O   0  0
    2.8645   -4.1123    0.0000 C   0  0
    3.5817   -4.5211    0.0000 C   0  0
    4.2945   -4.1049    0.0000 N   0  0
    5.0401   -4.4412    0.0000 C   0  0
    5.5878   -3.8243    0.0000 C   0  0
    5.1704   -3.1127    0.0000 C   0  0
    4.3646   -3.2899    0.0000 C   0  0
    1.4317   -3.2947    0.0000 C   0  0
    0.7158   -2.8847    0.0000 C   0  0
    0.0000   -1.6500    0.0000 N   0  0
    0.0000   -0.8250    0.0000 C   0  0
    0.0000    1.6504    0.0000 C   0  0
   -0.7151    2.0618    0.0000 C   0  0
   -0.7164    2.8868    0.0000 C   0  0
   -1.4311    3.2999    0.0000 O   0  0
   -0.0026    3.3005    0.0000 C   0  0
    0.7125    2.8891    0.0000 C   0  0
    0.7138    2.0641    0.0000 C   0  0
    1.2859    1.7350    0.0000 Cl  0  0
   -1.4312    3.8499    0.0000 H   0  0
   -1.1886   -3.1638    0.0000 H   0  0
  1  2  1  0
  2  3  2  0
  3  4  1  0
  4  5  2  0
  4 27  1  0
  5  6  1  0
  6  7  2  0
  7  8  1  0
  8  9  2  0
  9 10  1  0
  9 25  1  0
 10 11  1  0
 10 36  1  0
 11 12  2  0
 12 13  1  0
 13 14  2  0
 14 15  1  0
 14 23  1  0
 15 16  1  0
 16 17  1  0
 17 18  1  0
 18 19  1  0
 19 20  1  0
 20 21  1  0
 21 22  1  0
 22 18  1  0
 23 24  2  0
 24 11  1  0
 25 26  2  0
 26  2  1  0
 26  6  1  0
 27 28  2  0
 28 29  1  0
 29 30  1  0
 29 31  2  0
 30 35  1  0
 31 32  1  0
 32 33  2  0
 33 27  1  0
 33 34  1  0
M  END
> <CMPD_CHEMBLID>
CHEMBL400402

> <STANDARD_TYPE>
Ki

> <RELATION>
=

> <STANDARD_VALUE>
1.3

> <STANDARD_UNITS>
nM

> <Molecular_Weight>
475.96994

$$$$

  SciTegic11272012012D

 41 45  0  0  0  0            999 V2000
    1.2861   -0.7425    0.0000 C   0  0
    0.7144   -0.4125    0.0000 C   0  0
    0.7144    0.4125    0.0000 C   0  0
    0.0000    0.8250    0.0000 C   0  0
   -0.7144    0.4125    0.0000 C   0  0
   -0.7144   -0.4125    0.0000 C   0  0
   -1.4290   -0.8250    0.0000 N   0  0
   -1.4290   -1.6500    0.0000 N   0  0
   -0.7144   -2.0625    0.0000 C   0  0
   -0.7127   -2.8879    0.0000 N   0  0
    0.0027   -3.2997    0.0000 C   0  0
    0.0056   -4.1247    0.0000 C   0  0
    0.7215   -4.5347    0.0000 C   0  0
    1.4345   -4.1197    0.0000 C   0  0
    1.4317   -3.2947    0.0000 C   0  0
    0.7158   -2.8847    0.0000 C   0  0
    2.1508   -4.5300    0.0000 S   0  0
    2.7211   -4.1978    0.0000 O   0  0
    2.7237   -4.8577    0.0000 O   0  0
    2.1542   -5.3554    0.0000 N   0  0
    2.8705   -5.7656    0.0000 C   0  0
    2.8739   -6.5911    0.0000 C   0  0
    3.5902   -7.0014    0.0000 N   0  0
    3.6705   -7.8154    0.0000 C   0  0
    4.4784   -7.9825    0.0000 C   0  0
    4.8870   -7.2657    0.0000 C   0  0
    4.3315   -6.6557    0.0000 C   0  0
    0.0000   -1.6500    0.0000 N   0  0
    0.0000   -0.8250    0.0000 C   0  0
    0.0000    1.6504    0.0000 C   0  0
    0.7138    2.0641    0.0000 C   0  0
    1.2859    1.7350    0.0000 Cl  0  0
    0.7125    2.8891    0.0000 C   0  0
   -0.0026    3.3005    0.0000 C   0  0
   -0.7164    2.8868    0.0000 C   0  0
   -1.4311    3.2999    0.0000 O   0  0
   -0.7151    2.0618    0.0000 C   0  0
   -1.2862    1.7310    0.0000 F   0  0
   -1.4312    3.8499    0.0000 H   0  0
    1.6789   -5.6322    0.0000 H   0  0
   -1.1886   -3.1638    0.0000 H   0  0
  1  2  1  0
  2  3  2  0
  3  4  1  0
  4  5  2  0
  4 30  1  0
  5  6  1  0
  6  7  2  0
  7  8  1  0
  8  9  2  0
  9 10  1  0
  9 28  1  0
 10 11  1  0
 10 41  1  0
 11 12  2  0
 12 13  1  0
 13 14  2  0
 14 15  1  0
 14 17  1  0
 15 16  2  0
 16 11  1  0
 17 18  2  0
 17 19  2  0
 17 20  1  0
 20 21  1  0
 20 40  1  0
 21 22  1  0
 22 23  1  0
 23 24  1  0
 24 25  1  0
 25 26  1  0
 26 27  1  0
 27 23  1  0
 28 29  2  0
 29  2  1  0
 29  6  1  0
 30 31  2  0
 31 32  1  0
 31 33  1  0
 33 34  2  0
 34 35  1  0
 35 36  1  0
 35 37  2  0
 36 39  1  0
 37 30  1  0
 37 38  1  0
M  END
> <CMPD_CHEMBLID>
CHEMBL250821

> <STANDARD_TYPE>
Ki

> <RELATION>
=

> <STANDARD_VALUE>
1.3

> <STANDARD_UNITS>
nM

> <Molecular_Weight>
557.03944

$$$$

  SciTegic11272012012D

 40 44  0  0  0  0            999 V2000
    7.8485    4.3779    0.0000 C   0  0
    7.8508    3.7179    0.0000 N   0  0
    8.5667    3.3079    0.0000 C   0  0
    8.5696    2.4829    0.0000 C   0  0
    7.8566    2.0679    0.0000 N   0  0
    7.8578    1.2424    0.0000 C   0  0
    7.1438    0.8282    0.0000 C   0  0
    6.4293    1.2407    0.0000 C   0  0
    5.7149    0.8282    0.0000 C   0  0
    5.7148    0.0032    0.0000 C   0  0
    5.0008   -0.4110    0.0000 N   0  0
    5.0020   -1.2364    0.0000 C   0  0
    5.5742   -1.5655    0.0000 O   0  0
    4.2880   -1.6507    0.0000 C   0  0
    4.2880   -2.4756    0.0000 C   0  0
    3.5735   -2.8881    0.0000 C   0  0
    2.8590   -2.4756    0.0000 C   0  0
    2.2875   -2.8056    0.0000 C   0  0
    2.8590   -1.6507    0.0000 C   0  0
    3.5735   -1.2382    0.0000 C   0  0
    2.1442   -1.2379    0.0000 C   0  0
    1.4293   -0.8252    0.0000 C   0  0
    0.7144   -0.4125    0.0000 C   0  0
    0.7144    0.4125    0.0000 C   0  0
    0.0000    0.8250    0.0000 N   0  0
   -0.7144    0.4125    0.0000 C   0  0
   -1.4986    0.6674    0.0000 N   0  0
   -1.9836    0.0000    0.0000 C   0  0
   -1.4986   -0.6674    0.0000 N   0  0
   -0.7144   -0.4125    0.0000 N   0  0
    0.0000   -0.8250    0.0000 C   0  0
    6.4294   -0.4093    0.0000 C   0  0
    7.1438    0.0032    0.0000 C   0  0
    7.8587   -0.4095    0.0000 C   0  0
    7.8591   -1.0695    0.0000 F   0  0
    8.4301   -0.0793    0.0000 F   0  0
    8.4304   -0.7392    0.0000 F   0  0
    7.1407    2.4780    0.0000 C   0  0
    7.1378    3.3030    0.0000 C   0  0
    4.5241   -0.1368    0.0000 H   0  0
  1  2  1  0
  2  3  1  0
  3  4  1  0
  4  5  1  0
  5  6  1  0
  5 38  1  0
  6  7  1  0
  7  8  2  0
  8  9  1  0
  9 10  2  0
 10 11  1  0
 10 32  1  0
 11 12  1  0
 11 40  1  0
 12 13  2  0
 12 14  1  0
 14 15  2  0
 15 16  1  0
 16 17  2  0
 17 18  1  0
 17 19  1  0
 19 20  2  0
 19 21  1  0
 20 14  1  0
 21 22  3  0
 22 23  1  0
 23 24  1  0
 24 25  2  0
 25 26  1  0
 26 27  2  0
 27 28  1  0
 28 29  2  0
 29 30  1  0
 30 26  1  0
 30 31  1  0
 31 23  2  0
 32 33  2  0
 33  7  1  0
 33 34  1  0
 34 35  1  0
 34 36  1  0
 34 37  1  0
 38 39  1  0
 39  2  1  0
M  END
> <CMPD_CHEMBLID>
CHEMBL2316581

> <STANDARD_TYPE>
IC50

> <RELATION>
=

> <STANDARD_VALUE>
1.33

> <STANDARD_UNITS>
nM

> <Molecular_Weight>
533.54755

$$$$

  SciTegic11272012012D

 24 27  0  0  0  0            999 V2000
    2.1456    0.2461    0.0000 Cl  0  0
    2.1445   -0.4139    0.0000 C   0  0
    2.8583   -0.8275    0.0000 C   0  0
    2.8570   -1.6525    0.0000 N   0  0
    2.1419   -2.0639    0.0000 C   0  0
    1.4281   -1.6502    0.0000 C   0  0
    1.4293   -0.8252    0.0000 C   0  0
    0.7145   -0.4125    0.0000 C   0  0
    0.7145    0.4125    0.0000 C   0  0
    0.0000    0.8250    0.0000 C   0  0
   -0.7145    0.4125    0.0000 C   0  0
   -1.4290    0.8250    0.0000 C   0  0
   -2.1434    0.4125    0.0000 C   0  0
   -2.8592    0.8237    0.0000 N   0  0
   -3.5735    0.4100    0.0000 C   0  0
   -3.5723   -0.2500    0.0000 O   0  0
   -4.2892    0.8213    0.0000 C   0  0
   -5.0706    0.7961    0.0000 C   0  0
   -4.6581    1.5106    0.0000 C   0  0
   -2.1434   -0.4125    0.0000 N   0  0
   -1.4290   -0.8250    0.0000 C   0  0
   -0.7145   -0.4125    0.0000 C   0  0
    0.0000   -0.8250    0.0000 C   0  0
   -2.8601    1.3738    0.0000 H   0  0
  1  2  1  0
  2  3  2  0
  3  4  1  0
  4  5  2  0
  5  6  1  0
  6  7  2  0
  7  2  1  0
  7  8  1  0
  8  9  2  0
  9 10  1  0
 10 11  2  0
 11 12  1  0
 12 13  2  0
 13 14  1  0
 13 20  1  0
 14 15  1  0
 14 24  1  0
 15 16  2  0
 15 17  1  0
 17 18  1  0
 18 19  1  0
 19 17  1  0
 20 21  2  0
 21 22  1  0
 22 11  1  0
 22 23  2  0
 23  8  1  0
M  END
> <CMPD_CHEMBLID>
CHEMBL3689702

> <STANDARD_TYPE>
Ki

> <RELATION>
=

> <STANDARD_VALUE>
1.39

> <STANDARD_UNITS>
nM

> <Molecular_Weight>
323.77626

$$$$

  SciTegic11272012012D

 44 48  0  0  0  0            999 V2000
    1.2861   -0.7425    0.0000 C   0  0
    0.7144   -0.4125    0.0000 N   0  0
    0.7144    0.4125    0.0000 C   0  0
    1.2861    0.7425    0.0000 O   0  0
    0.0000    0.8250    0.0000 C   0  0
   -0.7144    0.4125    0.0000 C   0  0
   -0.7144   -0.4125    0.0000 C   0  0
   -1.4290   -0.8250    0.0000 C   0  0
   -1.4290   -1.6500    0.0000 N   0  0
   -0.7144   -2.0625    0.0000 C   0  0
   -0.7127   -2.8879    0.0000 N   0  0
    0.0027   -3.2997    0.0000 C   0  0
    0.0056   -4.1247    0.0000 C   0  0
    0.7215   -4.5347    0.0000 C   0  0
    1.4345   -4.1197    0.0000 C   0  0
    2.1517   -4.5285    0.0000 O   0  0
    2.8645   -4.1123    0.0000 C   0  0
    2.8588   -3.2873    0.0000 O   0  0
    3.5704   -2.8698    0.0000 C   0  0
    3.5630   -2.0444    0.0000 C   0  0
    2.8448   -1.6377    0.0000 O   0  0
    4.2877   -3.2774    0.0000 C   0  0
    5.0006   -2.8612    0.0000 O   0  0
    4.2935   -4.1023    0.0000 C   0  0
    5.0103   -4.5116    0.0000 O   0  0
    3.5819   -4.5198    0.0000 C   0  0
    3.5859   -5.3452    0.0000 O   0  0
    1.4317   -3.2947    0.0000 C   0  0
    0.7158   -2.8847    0.0000 C   0  0
    0.0000   -1.6500    0.0000 N   0  0
    0.0000   -0.8250    0.0000 C   0  0
    0.0000    1.6504    0.0000 C   0  0
    0.7138    2.0641    0.0000 C   0  0
    1.2859    1.7350    0.0000 Cl  0  0
    0.7125    2.8891    0.0000 C   0  0
   -0.0026    3.3005    0.0000 C   0  0
   -0.7164    2.8868    0.0000 C   0  0
   -0.7151    2.0618    0.0000 C   0  0
   -1.2862    1.7310    0.0000 Cl  0  0
    3.1111   -5.6229    0.0000 H   0  0
    5.0134   -5.0616    0.0000 H   0  0
    5.4784   -3.1336    0.0000 H   0  0
    2.8398   -1.0877    0.0000 H   0  0
   -1.1886   -3.1638    0.0000 H   0  0
  1  2  1  0
  2  3  1  0
  3  4  2  0
  3  5  1  0
  5  6  2  0
  5 32  1  0
  6  7  1  0
  7  8  2  0
  8  9  1  0
  9 10  2  0
 10 11  1  0
 10 30  1  0
 11 12  1  0
 11 44  1  0
 12 13  2  0
 13 14  1  0
 14 15  2  0
 15 16  1  0
 15 28  1  0
 16 17  1  0
 17 18  1  0
 18 19  1  0
 19 20  1  0
 19 22  1  0
 20 21  1  0
 21 43  1  0
 22 23  1  0
 22 24  1  0
 23 42  1  0
 24 25  1  0
 24 26  1  0
 25 41  1  0
 26 17  1  0
 26 27  1  0
 27 40  1  0
 28 29  2  0
 29 12  1  0
 30 31  2  0
 31  2  1  0
 31  7  1  0
 32 33  2  0
 33 34  1  0
 33 35  1  0
 35 36  2  0
 36 37  1  0
 37 38  2  0
 38 32  1  0
 38 39  1  0
M  END
> <CMPD_CHEMBLID>
CHEMBL585666

> <STANDARD_TYPE>
IC50

> <RELATION>
=

> <STANDARD_VALUE>
1.4

> <STANDARD_UNITS>
nM

> <Molecular_Weight>
575.39736

$$$$

  SciTegic11272012012D

 25 27  0  0  0  0            999 V2000
    2.5619   -3.0003    0.0000 C   0  0
    2.2308   -2.4294    0.0000 O   0  0
    1.4053   -2.4306    0.0000 C   0  0
    1.0763   -3.0028    0.0000 O   0  0
    0.9918   -1.7178    0.0000 C   0  0
    1.3273   -0.9642    0.0000 C   0  0
    0.7145   -0.4125    0.0000 C   0  0
    0.7145    0.4125    0.0000 C   0  0
    0.0000    0.8250    0.0000 C   0  0
   -0.0017    1.6505    0.0000 N   0  0
   -0.7172    2.0622    0.0000 C   0  0
   -0.7189    2.8876    0.0000 C   0  0
   -1.4334    3.3002    0.0000 C   0  0
   -2.0049    2.9702    0.0000 C   0  0
   -1.4334    4.1252    0.0000 C   0  0
   -0.7189    4.5377    0.0000 C   0  0
   -0.0044    4.1252    0.0000 C   0  0
   -0.0044    3.3002    0.0000 C   0  0
    0.5672    2.9703    0.0000 Cl  0  0
   -0.7145    0.4125    0.0000 C   0  0
   -0.7145   -0.4125    0.0000 N   0  0
    0.0000   -0.8250    0.0000 C   0  0
    0.1713   -1.6316    0.0000 N   0  0
   -0.1967   -2.0403    0.0000 H   0  0
    0.4741    1.9263    0.0000 H   0  0
  1  2  1  0
  2  3  1  0
  3  4  2  0
  3  5  1  0
  5  6  2  0
  6  7  1  0
  7  8  2  0
  8  9  1  0
  9 10  1  0
  9 20  2  0
 10 11  1  0
 10 25  1  0
 11 12  1  0
 12 13  2  0
 13 14  1  0
 13 15  1  0
 15 16  2  0
 16 17  1  0
 17 18  2  0
 18 12  1  0
 18 19  1  0
 20 21  1  0
 21 22  2  0
 22  7  1  0
 22 23  1  0
 23  5  1  0
 23 24  1  0
M  END
> <CMPD_CHEMBLID>
CHEMBL3347388

> <STANDARD_TYPE>
IC50

> <RELATION>
=

> <STANDARD_VALUE>
1.4

> <STANDARD_UNITS>
nM

> <Molecular_Weight>
329.78084

$$$$

  SciTegic11272012012D

 36 39  0  0  0  0            999 V2000
    2.7110   -3.2230    0.0000 C   0  0
    2.1401   -2.8918    0.0000 O   0  0
    2.1413   -2.0663    0.0000 C   0  0
    1.4273   -1.6521    0.0000 C   0  0
    1.4285   -0.8267    0.0000 O   0  0
    0.7144   -0.4125    0.0000 C   0  0
    0.7144    0.4125    0.0000 N   0  0
    0.0000    0.8250    0.0000 C   0  0
    0.0017    1.6504    0.0000 N   0  0
    0.7171    2.0622    0.0000 C   0  0
    0.7201    2.8872    0.0000 C   0  0
    1.4359    3.2972    0.0000 C   0  0
    2.1489    2.8823    0.0000 C   0  0
    2.1461    2.0573    0.0000 C   0  0
    1.4302    1.6472    0.0000 C   0  0
    2.8653    3.2925    0.0000 P   0  0
    2.8680    3.9525    0.0000 O   0  0
    3.4356    2.9604    0.0000 C   0  0
    3.4381    3.6202    0.0000 C   0  0
   -0.7144    0.4125    0.0000 C   0  0
   -1.4986    0.6674    0.0000 N   0  0
   -1.9836    0.0000    0.0000 C   0  0
   -1.4986   -0.6674    0.0000 N   0  0
   -1.7547   -1.4507    0.0000 C   0  0
   -2.5623   -1.6213    0.0000 C   0  0
   -2.8189   -2.4059    0.0000 C   0  0
   -3.6259   -2.5776    0.0000 C   0  0
   -4.0676   -2.0872    0.0000 C   0  0
   -3.8807   -3.3622    0.0000 C   0  0
   -3.3285   -3.9752    0.0000 C   0  0
   -2.5216   -3.8036    0.0000 C   0  0
   -2.2668   -3.0189    0.0000 C   0  0
   -1.6212   -2.8816    0.0000 C   0  0
   -0.7144   -0.4125    0.0000 C   0  0
    0.0000   -0.8250    0.0000 N   0  0
   -0.4742    1.9263    0.0000 H   0  0
  1  2  1  0
  2  3  1  0
  3  4  1  0
  4  5  1  0
  5  6  1  0
  6  7  2  0
  7  8  1  0
  8  9  1  0
  8 20  2  0
  9 10  1  0
  9 36  1  0
 10 11  2  0
 11 12  1  0
 12 13  2  0
 13 14  1  0
 13 16  1  0
 14 15  2  0
 15 10  1  0
 16 17  2  0
 16 18  1  0
 16 19  1  0
 20 21  1  0
 21 22  2  0
 22 23  1  0
 23 24  1  0
 23 34  1  0
 24 25  2  0
 25 26  1  0
 26 27  2  0
 27 28  1  0
 27 29  1  0
 29 30  2  0
 30 31  1  0
 31 32  2  0
 32 26  1  0
 32 33  1  0
 34 20  1  0
 34 35  2  0
 35  6  1  0
M  END
> <CMPD_CHEMBLID>
CHEMBL461767

> <STANDARD_TYPE>
IC50

> <RELATION>
=

> <STANDARD_VALUE>
1.57

> <STANDARD_UNITS>
nM

> <Molecular_Weight>
491.52186

$$$$

  SciTegic11272012012D

 37 41  0  0  0  0            999 V2000
   -5.4917   -2.3744    0.0000 C   0  0
   -5.3379   -3.0162    0.0000 C   0  0
   -5.9365   -3.5839    0.0000 C   0  0
   -5.7442   -4.3862    0.0000 C   0  0
   -4.9533   -4.6208    0.0000 C   0  0
   -4.3546   -4.0531    0.0000 C   0  0
   -3.5627   -4.2862    0.0000 N   0  0
   -2.9646   -3.7174    0.0000 C   0  0
   -3.1195   -3.0758    0.0000 O   0  0
   -2.1727   -3.9505    0.0000 N   0  0
   -1.5745   -3.3817    0.0000 C   0  0
   -0.7828   -3.6135    0.0000 C   0  0
   -0.1861   -3.0437    0.0000 C   0  0
   -0.3810   -2.2449    0.0000 C   0  0
   -1.1730   -2.0103    0.0000 C   0  0
   -1.7696   -2.5800    0.0000 C   0  0
    0.1713   -1.6316    0.0000 C   0  0
    0.9918   -1.7178    0.0000 C   0  0
    1.3273   -0.9641    0.0000 S   0  0
    0.7144   -0.4125    0.0000 C   0  0
    0.7144    0.4125    0.0000 C   0  0
    0.0000    0.8250    0.0000 C   0  0
   -0.7144    0.4125    0.0000 N   0  0
   -0.7144   -0.4125    0.0000 C   0  0
   -1.4302   -0.8238    0.0000 N   0  0
    0.0000   -0.8250    0.0000 C   0  0
    1.4293    0.8252    0.0000 C   0  0
    2.1731    0.4848    0.0000 C   0  0
    2.7241    1.0988    0.0000 N   0  0
    2.3105    1.8126    0.0000 N   0  0
    2.5780    2.4160    0.0000 C   0  0
    1.5038    1.6398    0.0000 C   0  0
   -4.5469   -3.2508    0.0000 C   0  0
   -1.9061   -0.5481    0.0000 H   0  0
   -1.4312   -1.3738    0.0000 H   0  0
   -2.0436   -4.4851    0.0000 H   0  0
   -3.4336   -4.8208    0.0000 H   0  0
  1  2  1  0
  2  3  2  0
  3  4  1  0
  4  5  2  0
  5  6  1  0
  6  7  1  0
  6 33  2  0
  7  8  1  0
  7 37  1  0
  8  9  2  0
  8 10  1  0
 10 11  1  0
 10 36  1  0
 11 12  2  0
 12 13  1  0
 13 14  2  0
 14 15  1  0
 14 17  1  0
 15 16  2  0
 16 11  1  0
 17 18  2  0
 18 19  1  0
 19 20  1  0
 20 21  2  0
 21 22  1  0
 21 27  1  0
 22 23  2  0
 23 24  1  0
 24 25  1  0
 24 26  2  0
 25 34  1  0
 25 35  1  0
 26 17  1  0
 26 20  1  0
 27 28  1  0
 28 29  2  0
 29 30  1  0
 30 31  1  0
 30 32  1  0
 32 27  2  0
 33  2  1  0
M  END
> <CMPD_CHEMBLID>
CHEMBL1967116

> <STANDARD_TYPE>
Ki

> <RELATION>
=

> <STANDARD_VALUE>
1.58

> <STANDARD_UNITS>
nM

> <Molecular_Weight>
454.54678

$$$$

  SciTegic11272012012D

 37 41  0  0  0  0            999 V2000
   -5.4917   -2.3744    0.0000 C   0  0
   -5.3379   -3.0162    0.0000 C   0  0
   -5.9365   -3.5839    0.0000 C   0  0
   -5.7442   -4.3862    0.0000 C   0  0
   -4.9533   -4.6208    0.0000 C   0  0
   -4.3546   -4.0531    0.0000 C   0  0
   -3.5627   -4.2862    0.0000 N   0  0
   -2.9646   -3.7174    0.0000 C   0  0
   -3.1195   -3.0758    0.0000 O   0  0
   -2.1727   -3.9505    0.0000 N   0  0
   -1.5745   -3.3817    0.0000 C   0  0
   -0.7828   -3.6135    0.0000 C   0  0
   -0.1861   -3.0437    0.0000 C   0  0
   -0.3810   -2.2449    0.0000 C   0  0
   -1.1730   -2.0103    0.0000 C   0  0
   -1.7696   -2.5800    0.0000 C   0  0
    0.1713   -1.6316    0.0000 C   0  0
    0.9918   -1.7178    0.0000 C   0  0
    1.3273   -0.9641    0.0000 S   0  0
    0.7144   -0.4125    0.0000 C   0  0
    0.7144    0.4125    0.0000 C   0  0
    0.0000    0.8250    0.0000 C   0  0
   -0.7144    0.4125    0.0000 N   0  0
   -0.7144   -0.4125    0.0000 C   0  0
   -1.4302   -0.8238    0.0000 N   0  0
    0.0000   -0.8250    0.0000 C   0  0
    1.4293    0.8252    0.0000 C   0  0
    2.1731    0.4848    0.0000 C   0  0
    2.7241    1.0988    0.0000 N   0  0
    2.3105    1.8126    0.0000 N   0  0
    1.5038    1.6398    0.0000 C   0  0
   -4.5469   -3.2508    0.0000 C   0  0
    2.5335    2.3154    0.0000 H   0  0
   -1.9061   -0.5481    0.0000 H   0  0
   -1.4312   -1.3738    0.0000 H   0  0
   -2.0436   -4.4851    0.0000 H   0  0
   -3.4336   -4.8208    0.0000 H   0  0
  1  2  1  0
  2  3  2  0
  3  4  1  0
  4  5  2  0
  5  6  1  0
  6  7  1  0
  6 32  2  0
  7  8  1  0
  7 37  1  0
  8  9  2  0
  8 10  1  0
 10 11  1  0
 10 36  1  0
 11 12  2  0
 12 13  1  0
 13 14  2  0
 14 15  1  0
 14 17  1  0
 15 16  2  0
 16 11  1  0
 17 18  2  0
 18 19  1  0
 19 20  1  0
 20 21  2  0
 21 22  1  0
 21 27  1  0
 22 23  2  0
 23 24  1  0
 24 25  1  0
 24 26  2  0
 25 34  1  0
 25 35  1  0
 26 17  1  0
 26 20  1  0
 27 28  1  0
 28 29  2  0
 29 30  1  0
 30 31  1  0
 30 33  1  0
 31 27  2  0
 32  2  1  0
M  END
> <CMPD_CHEMBLID>
CHEMBL1969102

> <STANDARD_TYPE>
Ki

> <RELATION>
=

> <STANDARD_VALUE>
1.58

> <STANDARD_UNITS>
nM

> <Molecular_Weight>
440.5202

$$$$

  SciTegic11272012012D

 43 47  0  0  0  0            999 V2000
    1.4302   -0.8237    0.0000 N   0  0
    0.7144   -0.4125    0.0000 C   0  0
    0.7144    0.4125    0.0000 N   0  0
    0.0000    0.8250    0.0000 C   0  0
   -0.7144    0.4125    0.0000 C   0  0
   -1.4293    0.8252    0.0000 C   0  0
   -1.5064    1.6395    0.0000 C   0  0
   -2.3137    1.8098    0.0000 N   0  0
   -2.7250    1.0947    0.0000 N   0  0
   -3.5442    1.0055    0.0000 C   0  0
   -3.8777    0.2504    0.0000 C   0  0
   -4.6983    0.1611    0.0000 O   0  0
   -2.1720    0.4825    0.0000 C   0  0
   -0.7144   -0.4125    0.0000 C   0  0
   -1.3273   -0.9641    0.0000 S   0  0
   -0.9918   -1.7178    0.0000 C   0  0
   -0.1713   -1.6316    0.0000 C   0  0
    0.3811   -2.2449    0.0000 C   0  0
    0.1862   -3.0437    0.0000 C   0  0
    0.7828   -3.6135    0.0000 C   0  0
    1.5746   -3.3816    0.0000 C   0  0
    2.1728   -3.9505    0.0000 N   0  0
    2.9646   -3.7174    0.0000 C   0  0
    3.1195   -3.0758    0.0000 O   0  0
    3.5628   -4.2862    0.0000 N   0  0
    4.3546   -4.0530    0.0000 C   0  0
    4.9533   -4.6207    0.0000 C   0  0
    5.7442   -4.3861    0.0000 C   0  0
    5.9365   -3.5838    0.0000 C   0  0
    6.7274   -3.3475    0.0000 O   0  0
    6.9187   -2.5445    0.0000 C   0  0
    7.5511   -2.3555    0.0000 F   0  0
    6.4390   -2.0912    0.0000 F   0  0
    5.3379   -3.0162    0.0000 C   0  0
    4.5469   -3.2508    0.0000 C   0  0
    1.7697   -2.5800    0.0000 C   0  0
    1.1730   -2.0103    0.0000 C   0  0
    0.0000   -0.8250    0.0000 C   0  0
    3.4336   -4.8208    0.0000 H   0  0
    2.0436   -4.4851    0.0000 H   0  0
   -4.9204   -0.3420    0.0000 H   0  0
    1.9061   -0.5481    0.0000 H   0  0
    1.4311   -1.3737    0.0000 H   0  0
  1  2  1  0
  1 42  1  0
  1 43  1  0
  2  3  2  0
  3  4  1  0
  4  5  2  0
  5  6  1  0
  5 14  1  0
  6  7  1  0
  7  8  2  0
  8  9  1  0
  9 10  1  0
  9 13  1  0
 10 11  1  0
 11 12  1  0
 12 41  1  0
 13  6  2  0
 14 15  1  0
 15 16  1  0
 16 17  2  0
 17 18  1  0
 17 38  1  0
 18 19  2  0
 19 20  1  0
 20 21  2  0
 21 22  1  0
 21 36  1  0
 22 23  1  0
 22 40  1  0
 23 24  2  0
 23 25  1  0
 25 26  1  0
 25 39  1  0
 26 27  2  0
 27 28  1  0
 28 29  2  0
 29 30  1  0
 29 34  1  0
 30 31  1  0
 31 32  1  0
 31 33  1  0
 34 35  2  0
 35 26  1  0
 36 37  2  0
 37 18  1  0
 38  2  1  0
 38 14  2  0
M  END
> <CMPD_CHEMBLID>
CHEMBL1972220

> <STANDARD_TYPE>
Ki

> <RELATION>
=

> <STANDARD_VALUE>
1.58

> <STANDARD_UNITS>
nM

> <Molecular_Weight>
536.55309

$$$$

  SciTegic11272012012D

 41 45  0  0  0  0            999 V2000
   -5.0129    0.7395    0.0000 C   0  0
   -5.2160    0.1116    0.0000 C   0  0
   -4.7301   -0.5552    0.0000 C   0  0
   -5.2178   -1.2119    0.0000 N   0  0
   -5.9991   -0.9695    0.0000 C   0  0
   -6.0002   -0.1445    0.0000 N   0  0
   -4.9629   -1.9969    0.0000 C   0  0
   -4.1560   -2.1686    0.0000 C   0  0
   -3.9011   -2.9533    0.0000 C   0  0
   -3.0941   -3.1267    0.0000 N   0  0
   -2.8402   -3.9121    0.0000 C   0  0
   -3.2828   -4.4018    0.0000 O   0  0
   -2.0332   -4.0856    0.0000 C   0  0
   -1.7784   -4.8702    0.0000 C   0  0
   -0.9714   -5.0419    0.0000 C   0  0
   -0.4193   -4.4289    0.0000 C   0  0
    0.2263   -4.5662    0.0000 C   0  0
   -0.6741   -3.6442    0.0000 C   0  0
   -0.1229   -3.0297    0.0000 C   0  0
   -0.3789   -2.2450    0.0000 C   0  0
    0.1713   -1.6316    0.0000 N   0  0
    0.9918   -1.7178    0.0000 C   0  0
    1.3273   -0.9641    0.0000 N   0  0
    0.7144   -0.4125    0.0000 C   0  0
    0.7144    0.4125    0.0000 C   0  0
    1.4285    0.8267    0.0000 N   0  0
    0.0000    0.8250    0.0000 N   0  0
   -0.7144    0.4125    0.0000 C   0  0
   -0.7144   -0.4125    0.0000 N   0  0
    0.0000   -0.8250    0.0000 C   0  0
   -1.4810   -3.4726    0.0000 C   0  0
   -4.4533   -3.5663    0.0000 C   0  0
   -5.2603   -3.3946    0.0000 C   0  0
   -5.5150   -2.6100    0.0000 C   0  0
   -5.8127   -4.0080    0.0000 C   0  0
   -5.6092   -4.6358    0.0000 F   0  0
   -6.4582   -3.8704    0.0000 F   0  0
   -6.2547   -4.4981    0.0000 F   0  0
    1.4277    1.3767    0.0000 H   0  0
    1.9053    0.5525    0.0000 H   0  0
   -2.7252   -2.7186    0.0000 H   0  0
  1  2  1  0
  2  3  2  0
  3  4  1  0
  4  5  1  0
  4  7  1  0
  5  6  2  0
  6  2  1  0
  7  8  2  0
  8  9  1  0
  9 10  1  0
  9 32  2  0
 10 11  1  0
 10 41  1  0
 11 12  2  0
 11 13  1  0
 13 14  2  0
 14 15  1  0
 15 16  2  0
 16 17  1  0
 16 18  1  0
 18 19  1  0
 18 31  2  0
 19 20  2  0
 20 21  1  0
 21 22  1  0
 22 23  2  0
 23 24  1  0
 24 25  2  0
 25 26  1  0
 25 27  1  0
 26 39  1  0
 26 40  1  0
 27 28  2  0
 28 29  1  0
 29 30  2  0
 30 21  1  0
 30 24  1  0
 31 13  1  0
 32 33  1  0
 33 34  2  0
 33 35  1  0
 34  7  1  0
 35 36  1  0
 35 37  1  0
 35 38  1  0
M  END
> <CMPD_CHEMBLID>
CHEMBL1171679

> <STANDARD_TYPE>
IC50

> <RELATION>
=

> <STANDARD_VALUE>
1.6

> <STANDARD_UNITS>
nM

> <Molecular_Weight>
518.49315

$$$$

  SciTegic11272012012D

 41 45  0  0  0  0            999 V2000
    9.7975   -7.4279    0.0000 C   0  0
    9.5291   -6.8249    0.0000 N   0  0
   10.0140   -6.1575    0.0000 C   0  0
    9.6784   -5.4039    0.0000 C   0  0
    8.8579   -5.3176    0.0000 N   0  0
    8.5207   -4.5642    0.0000 C   0  0
    7.6996   -4.4791    0.0000 C   0  0
    7.2170   -5.1482    0.0000 C   0  0
    6.3962   -5.0648    0.0000 C   0  0
    6.0580   -4.3123    0.0000 C   0  0
    5.2369   -4.2272    0.0000 N   0  0
    4.8996   -3.4739    0.0000 C   0  0
    5.2866   -2.9392    0.0000 O   0  0
    4.0786   -3.3888    0.0000 N   0  0
    3.7418   -2.6366    0.0000 C   0  0
    2.9349   -2.4651    0.0000 C   0  0
    2.8591   -1.6507    0.0000 C   0  0
    2.1442   -1.2379    0.0000 C   0  0
    1.4293   -0.8252    0.0000 C   0  0
    0.7144   -0.4125    0.0000 C   0  0
    0.7144    0.4125    0.0000 C   0  0
    0.0000    0.8250    0.0000 N   0  0
   -0.7144    0.4125    0.0000 C   0  0
   -0.7144   -0.4125    0.0000 C   0  0
   -1.3273   -0.9641    0.0000 N   0  0
   -0.9918   -1.7178    0.0000 C   0  0
   -0.1713   -1.6316    0.0000 C   0  0
    0.0000   -0.8250    0.0000 N   0  0
    3.6023   -1.3091    0.0000 N   0  0
    3.7357   -0.6627    0.0000 C   0  0
    4.1543   -1.9222    0.0000 N   0  0
    6.5407   -3.6432    0.0000 C   0  0
    7.3614   -3.7266    0.0000 C   0  0
    7.8443   -3.0571    0.0000 C   0  0
    7.5741   -2.4549    0.0000 F   0  0
    8.5009   -3.1240    0.0000 F   0  0
    8.2306   -2.5220    0.0000 F   0  0
    8.3730   -5.9851    0.0000 C   0  0
    8.7086   -6.7388    0.0000 C   0  0
    3.7561   -3.8343    0.0000 H   0  0
    4.9144   -4.6727    0.0000 H   0  0
  1  2  1  0
  2  3  1  0
  3  4  1  0
  4  5  1  0
  5  6  1  0
  5 38  1  0
  6  7  1  0
  7  8  2  0
  8  9  1  0
  9 10  2  0
 10 11  1  0
 10 32  1  0
 11 12  1  0
 11 41  1  0
 12 13  2  0
 12 14  1  0
 14 15  1  0
 14 40  1  0
 15 16  1  0
 16 17  2  0
 17 18  1  0
 17 29  1  0
 18 19  3  0
 19 20  1  0
 20 21  2  0
 21 22  1  0
 22 23  2  0
 23 24  1  0
 24 25  2  0
 25 26  1  0
 26 27  2  0
 27 28  1  0
 28 20  1  0
 28 24  1  0
 29 30  1  0
 29 31  1  0
 31 15  2  0
 32 33  2  0
 33  7  1  0
 33 34  1  0
 34 35  1  0
 34 36  1  0
 34 37  1  0
 38 39  1  0
 39  2  1  0
M  END
> <CMPD_CHEMBLID>
CHEMBL2324923

> <STANDARD_TYPE>
IC50

> <RELATION>
=

> <STANDARD_VALUE>
1.6

> <STANDARD_UNITS>
nM

> <Molecular_Weight>
537.53955

$$$$

  SciTegic11272012012D

 36 40  0  0  0  0            999 V2000
   -1.6849   -2.8448    0.0000 C   0  0
   -1.4810   -3.4726    0.0000 C   0  0
   -2.0332   -4.0856    0.0000 C   0  0
   -1.7784   -4.8702    0.0000 C   0  0
   -0.9714   -5.0419    0.0000 C   0  0
   -0.4193   -4.4289    0.0000 C   0  0
    0.2263   -4.5662    0.0000 C   0  0
   -0.6741   -3.6442    0.0000 C   0  0
   -0.1229   -3.0297    0.0000 C   0  0
   -0.3789   -2.2450    0.0000 C   0  0
    0.1713   -1.6316    0.0000 N   0  0
    0.9918   -1.7178    0.0000 C   0  0
    1.3273   -0.9641    0.0000 N   0  0
    0.7144   -0.4125    0.0000 C   0  0
    0.7144    0.4125    0.0000 C   0  0
    1.4285    0.8267    0.0000 N   0  0
    1.4273    1.6521    0.0000 C   0  0
    2.1403    2.0672    0.0000 C   0  0
    2.1375    2.8922    0.0000 C   0  0
    1.4216    3.3022    0.0000 C   0  0
    0.7086    2.8872    0.0000 C   0  0
    0.7114    2.0622    0.0000 C   0  0
    1.4187    4.1276    0.0000 P   0  0
    1.9889    4.4600    0.0000 O   0  0
    0.8459    4.4555    0.0000 C   0  0
    1.4161    4.7876    0.0000 C   0  0
    0.0000    0.8250    0.0000 N   0  0
   -0.7144    0.4125    0.0000 C   0  0
   -0.7144   -0.4125    0.0000 N   0  0
    0.0000   -0.8250    0.0000 C   0  0
   -1.4293    0.8252    0.0000 N   0  0
   -1.5064    1.6395    0.0000 C   0  0
   -2.3137    1.8098    0.0000 C   0  0
   -2.7250    1.0947    0.0000 N   0  0
   -2.1721    0.4825    0.0000 C   0  0
    1.9053    0.5525    0.0000 H   0  0
  1  2  1  0
  2  3  2  0
  3  4  1  0
  4  5  2  0
  5  6  1  0
  6  7  1  0
  6  8  2  0
  8  2  1  0
  8  9  1  0
  9 10  2  0
 10 11  1  0
 11 12  1  0
 12 13  2  0
 13 14  1  0
 14 15  2  0
 15 16  1  0
 15 27  1  0
 16 17  1  0
 16 36  1  0
 17 18  2  0
 18 19  1  0
 19 20  2  0
 20 21  1  0
 20 23  1  0
 21 22  2  0
 22 17  1  0
 23 24  2  0
 23 25  1  0
 23 26  1  0
 27 28  2  0
 28 29  1  0
 28 31  1  0
 29 30  2  0
 30 11  1  0
 30 14  1  0
 31 32  1  0
 32 33  2  0
 33 34  1  0
 34 35  2  0
 35 31  1  0
M  END
> <CMPD_CHEMBLID>
CHEMBL455384

> <STANDARD_TYPE>
IC50

> <RELATION>
=

> <STANDARD_VALUE>
1.63

> <STANDARD_UNITS>
nM

> <Molecular_Weight>
483.5047

$$$$

  SciTegic11272012012D

 39 43  0  0  0  0            999 V2000
    1.2861   -0.7425    0.0000 C   0  0
    0.7144   -0.4125    0.0000 C   0  0
    0.7144    0.4125    0.0000 C   0  0
    0.0000    0.8250    0.0000 C   0  0
   -0.7144    0.4125    0.0000 C   0  0
   -0.7144   -0.4125    0.0000 C   0  0
   -1.4290   -0.8250    0.0000 N   0  0
   -1.4290   -1.6500    0.0000 N   0  0
   -0.7144   -2.0625    0.0000 C   0  0
   -0.7127   -2.8879    0.0000 N   0  0
    0.0027   -3.2997    0.0000 C   0  0
    0.0056   -4.1247    0.0000 C   0  0
    0.7215   -4.5347    0.0000 C   0  0
    1.4345   -4.1197    0.0000 C   0  0
    1.4317   -3.2947    0.0000 C   0  0
    0.7158   -2.8847    0.0000 C   0  0
    2.1508   -4.5300    0.0000 S   0  0
    2.7211   -4.1978    0.0000 O   0  0
    2.7237   -4.8577    0.0000 O   0  0
    2.1542   -5.3554    0.0000 C   0  0
    2.8705   -5.7656    0.0000 C   0  0
    2.8739   -6.5911    0.0000 C   0  0
    3.5902   -7.0014    0.0000 N   0  0
    3.6705   -7.8154    0.0000 C   0  0
    4.4784   -7.9825    0.0000 C   0  0
    4.8870   -7.2657    0.0000 C   0  0
    4.3315   -6.6557    0.0000 C   0  0
    0.0000   -1.6500    0.0000 N   0  0
    0.0000   -0.8250    0.0000 C   0  0
    0.0000    1.6504    0.0000 C   0  0
   -0.7151    2.0618    0.0000 C   0  0
   -0.7164    2.8868    0.0000 C   0  0
   -1.4311    3.2999    0.0000 O   0  0
   -0.0026    3.3005    0.0000 C   0  0
    0.7125    2.8891    0.0000 C   0  0
    0.7138    2.0641    0.0000 C   0  0
    1.2859    1.7350    0.0000 Cl  0  0
   -1.4312    3.8499    0.0000 H   0  0
   -1.1886   -3.1638    0.0000 H   0  0
  1  2  1  0
  2  3  2  0
  3  4  1  0
  4  5  2  0
  4 30  1  0
  5  6  1  0
  6  7  2  0
  7  8  1  0
  8  9  2  0
  9 10  1  0
  9 28  1  0
 10 11  1  0
 10 39  1  0
 11 12  2  0
 12 13  1  0
 13 14  2  0
 14 15  1  0
 14 17  1  0
 15 16  2  0
 16 11  1  0
 17 18  2  0
 17 19  2  0
 17 20  1  0
 20 21  1  0
 21 22  1  0
 22 23  1  0
 23 24  1  0
 24 25  1  0
 25 26  1  0
 26 27  1  0
 27 23  1  0
 28 29  2  0
 29  2  1  0
 29  6  1  0
 30 31  2  0
 31 32  1  0
 32 33  1  0
 32 34  2  0
 33 38  1  0
 34 35  1  0
 35 36  2  0
 36 30  1  0
 36 37  1  0
M  END
> <CMPD_CHEMBLID>
CHEMBL399268

> <STANDARD_TYPE>
Ki

> <RELATION>
=

> <STANDARD_VALUE>
1.7

> <STANDARD_UNITS>
nM

> <Molecular_Weight>
538.06092

$$$$

  SciTegic11272012012D

 37 41  0  0  0  0            999 V2000
    1.2861   -0.7425    0.0000 C   0  0
    0.7145   -0.4125    0.0000 C   0  0
    0.7145    0.4125    0.0000 C   0  0
    0.0000    0.8250    0.0000 C   0  0
   -0.7145    0.4125    0.0000 C   0  0
   -0.7145   -0.4125    0.0000 C   0  0
   -1.4290   -0.8250    0.0000 N   0  0
   -1.4290   -1.6500    0.0000 N   0  0
   -0.7145   -2.0625    0.0000 C   0  0
   -0.7127   -2.8879    0.0000 N   0  0
    0.0027   -3.2997    0.0000 C   0  0
    0.0056   -4.1247    0.0000 C   0  0
    0.7215   -4.5347    0.0000 C   0  0
    1.4345   -4.1197    0.0000 C   0  0
    1.4317   -3.2947    0.0000 C   0  0
    0.7158   -2.8847    0.0000 C   0  0
    2.1517   -4.5285    0.0000 C   0  0
    2.1551   -5.1885    0.0000 O   0  0
    2.8645   -4.1123    0.0000 N   0  0
    3.5819   -4.5198    0.0000 C   0  0
    4.2935   -4.1023    0.0000 C   0  0
    4.2877   -3.2774    0.0000 N   0  0
    3.5704   -2.8698    0.0000 C   0  0
    2.8588   -3.2873    0.0000 C   0  0
    0.0000   -1.6500    0.0000 N   0  0
    0.0000   -0.8250    0.0000 C   0  0
    0.0000    1.6504    0.0000 C   0  0
   -0.7151    2.0618    0.0000 C   0  0
   -0.7164    2.8868    0.0000 C   0  0
   -1.4311    3.2999    0.0000 O   0  0
   -0.0026    3.3005    0.0000 C   0  0
    0.7125    2.8891    0.0000 C   0  0
    0.7138    2.0641    0.0000 C   0  0
    1.2859    1.7350    0.0000 Cl  0  0
   -1.4312    3.8499    0.0000 H   0  0
    4.7621   -2.9991    0.0000 H   0  0
   -1.1886   -3.1638    0.0000 H   0  0
  1  2  1  0
  2  3  2  0
  3  4  1  0
  4  5  2  0
  4 27  1  0
  5  6  1  0
  6  7  2  0
  7  8  1  0
  8  9  2  0
  9 10  1  0
  9 25  1  0
 10 11  1  0
 10 37  1  0
 11 12  2  0
 12 13  1  0
 13 14  2  0
 14 15  1  0
 14 17  1  0
 15 16  2  0
 16 11  1  0
 17 18  2  0
 17 19  1  0
 19 20  1  0
 20 21  1  0
 21 22  1  0
 22 23  1  0
 22 36  1  0
 23 24  1  0
 24 19  1  0
 25 26  2  0
 26  2  1  0
 26  6  1  0
 27 28  2  0
 28 29  1  0
 29 30  1  0
 29 31  2  0
 30 35  1  0
 31 32  1  0
 32 33  2  0
 33 27  1  0
 33 34  1  0
M  END
> <CMPD_CHEMBLID>
CHEMBL250214

> <STANDARD_TYPE>
Ki

> <RELATION>
=

> <STANDARD_VALUE>
1.7

> <STANDARD_UNITS>
nM

> <Molecular_Weight>
474.94212

$$$$

  SciTegic11272012012D

 32 35  0  0  0  0            999 V2000
    2.1455    0.2461    0.0000 C   0  0
    2.1445   -0.4139    0.0000 C   0  0
    2.8583   -0.8275    0.0000 C   0  0
    2.8570   -1.6525    0.0000 C   0  0
    2.1419   -2.0639    0.0000 N   0  0
    1.4281   -1.6502    0.0000 C   0  0
    1.4293   -0.8252    0.0000 C   0  0
    0.7144   -0.4125    0.0000 C   0  0
    0.7144    0.4125    0.0000 C   0  0
    0.0000    0.8250    0.0000 C   0  0
    0.0000    1.6500    0.0000 C   0  0
   -0.7145    2.0625    0.0000 N   0  0
   -1.4290    1.6500    0.0000 C   0  0
   -2.1447    2.0612    0.0000 N   0  0
   -2.8590    1.6475    0.0000 C   0  0
   -2.8578    0.9875    0.0000 O   0  0
   -3.5747    2.0588    0.0000 C   0  0
   -3.9436    2.7481    0.0000 C   0  0
   -4.3561    2.0337    0.0000 C   0  0
   -4.9223    1.6946    0.0000 F   0  0
   -1.4290    0.8250    0.0000 C   0  0
   -0.7144    0.4125    0.0000 C   0  0
   -0.7144   -0.4125    0.0000 C   0  0
    0.0000   -0.8250    0.0000 N   0  0
    3.5703   -2.0678    0.0000 C   0  0
    4.2858   -1.6560    0.0000 O   0  0
    3.5679   -2.8933    0.0000 C   0  0
    4.1383   -3.2254    0.0000 F   0  0
    3.5655   -3.5533    0.0000 F   0  0
    2.9952   -3.2214    0.0000 F   0  0
    4.2868   -1.1060    0.0000 H   0  0
   -2.1457    2.6112    0.0000 H   0  0
  1  2  1  0
  2  3  2  0
  3  4  1  0
  4  5  2  0
  4 25  1  0
  5  6  1  0
  6  7  2  0
  7  2  1  0
  7  8  1  0
  8  9  2  0
  9 10  1  0
 10 11  2  0
 11 12  1  0
 12 13  2  0
 13 14  1  0
 13 21  1  0
 14 15  1  0
 14 32  1  0
 15 16  2  0
 15 17  1  0
 17 18  1  0
 18 19  1  0
 19 17  1  0
 19 20  1  0
 21 22  2  0
 22 10  1  0
 22 23  1  0
 23 24  2  0
 24  8  1  0
 25 26  1  0
 25 27  1  0
 26 31  1  0
 27 28  1  0
 27 29  1  0
 27 30  1  0
M  END
> <CMPD_CHEMBLID>
CHEMBL3689742

> <STANDARD_TYPE>
Ki

> <RELATION>
=

> <STANDARD_VALUE>
1.71

> <STANDARD_UNITS>
nM

> <Molecular_Weight>
420.36025

$$$$

  SciTegic11272012012D

 33 36  0  0  0  0            999 V2000
    2.1456    0.2461    0.0000 C   0  0
    2.1445   -0.4139    0.0000 C   0  0
    2.8583   -0.8275    0.0000 C   0  0
    2.8570   -1.6525    0.0000 C   0  0
    2.1419   -2.0639    0.0000 N   0  0
    1.4281   -1.6502    0.0000 C   0  0
    1.4293   -0.8252    0.0000 C   0  0
    0.7145   -0.4125    0.0000 C   0  0
    0.7145    0.4125    0.0000 C   0  0
    0.0000    0.8250    0.0000 C   0  0
   -0.7145    0.4125    0.0000 C   0  0
   -1.4290    0.8250    0.0000 C   0  0
   -2.1434    0.4125    0.0000 C   0  0
   -2.8592    0.8237    0.0000 N   0  0
   -3.5735    0.4100    0.0000 C   0  0
   -3.5723   -0.2500    0.0000 O   0  0
   -4.2892    0.8213    0.0000 C   0  0
   -4.6581    1.5106    0.0000 C   0  0
   -5.0706    0.7961    0.0000 C   0  0
   -5.6369    0.4571    0.0000 F   0  0
   -2.1434   -0.4125    0.0000 N   0  0
   -1.4290   -0.8250    0.0000 C   0  0
   -0.7145   -0.4125    0.0000 C   0  0
    0.0000   -0.8250    0.0000 C   0  0
    3.5704   -2.0679    0.0000 C   0  0
    4.2858   -1.6560    0.0000 N   0  0
    3.5679   -2.8933    0.0000 C   0  0
    4.1383   -3.2254    0.0000 F   0  0
    3.5656   -3.5533    0.0000 F   0  0
    2.9952   -3.2214    0.0000 F   0  0
    4.2869   -1.1060    0.0000 H   0  0
    4.7617   -1.9318    0.0000 H   0  0
   -2.8601    1.3738    0.0000 H   0  0
  1  2  1  0
  2  3  2  0
  3  4  1  0
  4  5  2  0
  4 25  1  0
  5  6  1  0
  6  7  2  0
  7  2  1  0
  7  8  1  0
  8  9  2  0
  9 10  1  0
 10 11  2  0
 11 12  1  0
 12 13  2  0
 13 14  1  0
 13 21  1  0
 14 15  1  0
 14 33  1  0
 15 16  2  0
 15 17  1  0
 17 18  1  0
 18 19  1  0
 19 17  1  0
 19 20  1  0
 21 22  2  0
 22 23  1  0
 23 11  1  0
 23 24  2  0
 24  8  1  0
 25 26  1  0
 25 27  1  0
 26 31  1  0
 26 32  1  0
 27 28  1  0
 27 29  1  0
 27 30  1  0
M  END
> <CMPD_CHEMBLID>
CHEMBL3689725

> <STANDARD_TYPE>
Ki

> <RELATION>
=

> <STANDARD_VALUE>
1.75

> <STANDARD_UNITS>
nM

> <Molecular_Weight>
418.38743

$$$$

  SciTegic11272012012D

 33 36  0  0  0  0            999 V2000
    1.4276   -1.4867    0.0000 C   0  0
    1.4285   -0.8267    0.0000 O   0  0
    0.7144   -0.4125    0.0000 C   0  0
    0.7144    0.4125    0.0000 N   0  0
    0.0000    0.8250    0.0000 C   0  0
    0.0017    1.6504    0.0000 N   0  0
    0.7171    2.0622    0.0000 C   0  0
    0.7201    2.8872    0.0000 C   0  0
    1.4359    3.2972    0.0000 C   0  0
    2.1490    2.8823    0.0000 C   0  0
    2.1461    2.0573    0.0000 C   0  0
    1.4302    1.6472    0.0000 C   0  0
    2.8653    3.2925    0.0000 P   0  0
    2.8680    3.9525    0.0000 O   0  0
    3.4356    2.9604    0.0000 C   0  0
    3.4381    3.6203    0.0000 C   0  0
   -0.7144    0.4125    0.0000 C   0  0
   -1.4986    0.6674    0.0000 N   0  0
   -1.9836    0.0000    0.0000 C   0  0
   -1.4986   -0.6674    0.0000 N   0  0
   -1.7547   -1.4507    0.0000 C   0  0
   -2.5623   -1.6213    0.0000 C   0  0
   -2.8189   -2.4059    0.0000 C   0  0
   -3.6259   -2.5776    0.0000 C   0  0
   -4.0676   -2.0872    0.0000 C   0  0
   -3.8807   -3.3623    0.0000 C   0  0
   -3.3285   -3.9752    0.0000 C   0  0
   -2.5216   -3.8036    0.0000 C   0  0
   -2.2668   -3.0189    0.0000 C   0  0
   -1.6212   -2.8816    0.0000 C   0  0
   -0.7144   -0.4125    0.0000 C   0  0
    0.0000   -0.8250    0.0000 N   0  0
   -0.4742    1.9263    0.0000 H   0  0
  1  2  1  0
  2  3  1  0
  3  4  2  0
  4  5  1  0
  5  6  1  0
  5 17  2  0
  6  7  1  0
  6 33  1  0
  7  8  2  0
  8  9  1  0
  9 10  2  0
 10 11  1  0
 10 13  1  0
 11 12  2  0
 12  7  1  0
 13 14  2  0
 13 15  1  0
 13 16  1  0
 17 18  1  0
 18 19  2  0
 19 20  1  0
 20 21  1  0
 20 31  1  0
 21 22  2  0
 22 23  1  0
 23 24  2  0
 24 25  1  0
 24 26  1  0
 26 27  2  0
 27 28  1  0
 28 29  2  0
 29 23  1  0
 29 30  1  0
 31 17  1  0
 31 32  2  0
 32  3  1  0
M  END
> <CMPD_CHEMBLID>
CHEMBL509002

> <STANDARD_TYPE>
IC50

> <RELATION>
=

> <STANDARD_VALUE>
1.8

> <STANDARD_UNITS>
nM

> <Molecular_Weight>
447.4693

$$$$

  SciTegic11272012012D

 37 41  0  0  0  0            999 V2000
    3.3807   -1.0309    0.0000 C   0  0
    2.7242   -1.0988    0.0000 N   0  0
    2.1731   -0.4848    0.0000 C   0  0
    1.4293   -0.8252    0.0000 C   0  0
    1.5039   -1.6398    0.0000 C   0  0
    2.3106   -1.8126    0.0000 N   0  0
    0.7145   -0.4125    0.0000 C   0  0
    0.7145    0.4125    0.0000 C   0  0
    0.0000    0.8250    0.0000 N   0  0
   -0.7145    0.4125    0.0000 C   0  0
   -1.4285    0.8267    0.0000 N   0  0
   -0.7145   -0.4125    0.0000 C   0  0
   -1.3273   -0.9642    0.0000 C   0  0
   -0.9918   -1.7178    0.0000 C   0  0
   -0.1713   -1.6316    0.0000 S   0  0
    0.0000   -0.8250    0.0000 C   0  0
   -2.1347   -0.7924    0.0000 C   0  0
   -2.4465   -0.0316    0.0000 C   0  0
   -3.2641    0.0788    0.0000 C   0  0
   -3.7684   -0.5741    0.0000 C   0  0
   -4.5867   -0.4654    0.0000 N   0  0
   -5.0904   -1.1194    0.0000 C   0  0
   -4.8387   -1.7295    0.0000 O   0  0
   -5.9086   -1.0107    0.0000 N   0  0
   -6.4123   -1.6646    0.0000 C   0  0
   -7.2304   -1.5572    0.0000 C   0  0
   -7.7325   -2.2118    0.0000 C   0  0
   -7.4165   -2.9739    0.0000 C   0  0
   -6.5986   -3.0815    0.0000 C   0  0
   -6.3459   -3.6912    0.0000 F   0  0
   -6.0965   -2.4268    0.0000 C   0  0
   -3.4552   -1.3373    0.0000 C   0  0
   -2.6375   -1.4477    0.0000 C   0  0
   -6.1184   -0.5022    0.0000 H   0  0
   -4.7964    0.0430    0.0000 H   0  0
   -1.4277    1.3767    0.0000 H   0  0
   -1.9053    0.5525    0.0000 H   0  0
  1  2  1  0
  2  3  1  0
  3  4  2  0
  4  5  1  0
  4  7  1  0
  5  6  2  0
  6  2  1  0
  7  8  2  0
  8  9  1  0
  9 10  2  0
 10 11  1  0
 10 12  1  0
 11 36  1  0
 11 37  1  0
 12 13  1  0
 13 14  2  0
 13 17  1  0
 14 15  1  0
 15 16  1  0
 16  7  1  0
 16 12  2  0
 17 18  2  0
 18 19  1  0
 19 20  2  0
 20 21  1  0
 20 32  1  0
 21 22  1  0
 21 35  1  0
 22 23  2  0
 22 24  1  0
 24 25  1  0
 24 34  1  0
 25 26  2  0
 26 27  1  0
 27 28  2  0
 28 29  1  0
 29 30  1  0
 29 31  2  0
 31 25  1  0
 32 33  2  0
 33 17  1  0
M  END
> <CMPD_CHEMBLID>
CHEMBL1970317

> <STANDARD_TYPE>
Ki

> <RELATION>
=

> <STANDARD_VALUE>
2

> <STANDARD_UNITS>
nM

> <Molecular_Weight>
458.51066

$$$$

  SciTegic11272012012D

 37 40  0  0  0  0            999 V2000
    2.7167   -0.7388    0.0000 C   0  0
    2.1445   -0.4100    0.0000 N   0  0
    1.4302   -0.8237    0.0000 C   0  0
    1.4313   -1.4837    0.0000 O   0  0
    0.7145   -0.4125    0.0000 C   0  0
    0.7145    0.4125    0.0000 C   0  0
    0.0000    0.8250    0.0000 N   0  0
   -0.7145    0.4125    0.0000 C   0  0
   -1.4285    0.8267    0.0000 N   0  0
   -0.7145   -0.4125    0.0000 C   0  0
   -1.3273   -0.9642    0.0000 C   0  0
   -0.9918   -1.7178    0.0000 C   0  0
   -0.1713   -1.6316    0.0000 S   0  0
    0.0000   -0.8250    0.0000 C   0  0
   -2.1347   -0.7924    0.0000 C   0  0
   -2.4465   -0.0316    0.0000 C   0  0
   -3.2641    0.0788    0.0000 C   0  0
   -3.7684   -0.5741    0.0000 C   0  0
   -4.5867   -0.4654    0.0000 N   0  0
   -5.0904   -1.1194    0.0000 C   0  0
   -4.8387   -1.7295    0.0000 O   0  0
   -5.9086   -1.0107    0.0000 N   0  0
   -6.4123   -1.6646    0.0000 C   0  0
   -6.0965   -2.4268    0.0000 C   0  0
   -6.5986   -3.0815    0.0000 C   0  0
   -6.3459   -3.6912    0.0000 C   0  0
   -7.4165   -2.9739    0.0000 C   0  0
   -7.7325   -2.2118    0.0000 C   0  0
   -7.2304   -1.5572    0.0000 C   0  0
   -7.4831   -0.9475    0.0000 F   0  0
   -3.4552   -1.3373    0.0000 C   0  0
   -2.6375   -1.4477    0.0000 C   0  0
   -6.1184   -0.5022    0.0000 H   0  0
   -4.7964    0.0430    0.0000 H   0  0
   -1.4277    1.3767    0.0000 H   0  0
   -1.9053    0.5525    0.0000 H   0  0
    2.1435    0.1400    0.0000 H   0  0
  1  2  1  0
  2  3  1  0
  2 37  1  0
  3  4  2  0
  3  5  1  0
  5  6  2  0
  6  7  1  0
  7  8  2  0
  8  9  1  0
  8 10  1  0
  9 35  1  0
  9 36  1  0
 10 11  1  0
 11 12  2  0
 11 15  1  0
 12 13  1  0
 13 14  1  0
 14  5  1  0
 14 10  2  0
 15 16  2  0
 16 17  1  0
 17 18  2  0
 18 19  1  0
 18 31  1  0
 19 20  1  0
 19 34  1  0
 20 21  2  0
 20 22  1  0
 22 23  1  0
 22 33  1  0
 23 24  2  0
 24 25  1  0
 25 26  1  0
 25 27  2  0
 27 28  1  0
 28 29  2  0
 29 23  1  0
 29 30  1  0
 31 32  2  0
 32 15  1  0
M  END
> <CMPD_CHEMBLID>
CHEMBL2005631

> <STANDARD_TYPE>
Ki

> <RELATION>
=

> <STANDARD_VALUE>
2

> <STANDARD_UNITS>
nM

> <Molecular_Weight>
449.5006

$$$$

  SciTegic11272012012D

 25 28  0  0  0  0            999 V2000
    2.1409   -2.7239    0.0000 C   0  0
    2.1419   -2.0639    0.0000 C   0  0
    2.8570   -1.6525    0.0000 C   0  0
    2.8583   -0.8275    0.0000 C   0  0
    2.1445   -0.4139    0.0000 C   0  0
    2.1456    0.2461    0.0000 C   0  0
    1.4293   -0.8252    0.0000 C   0  0
    1.4281   -1.6502    0.0000 C   0  0
    0.7145   -0.4125    0.0000 C   0  0
    0.7145    0.4125    0.0000 C   0  0
    0.0000    0.8250    0.0000 C   0  0
   -0.7145    0.4125    0.0000 C   0  0
   -1.4290    0.8250    0.0000 C   0  0
   -2.1434    0.4125    0.0000 C   0  0
   -2.8592    0.8237    0.0000 N   0  0
   -3.5735    0.4100    0.0000 C   0  0
   -3.5723   -0.2500    0.0000 O   0  0
   -4.2892    0.8213    0.0000 C   0  0
   -5.0707    0.7961    0.0000 C   0  0
   -4.6581    1.5106    0.0000 C   0  0
   -2.1434   -0.4125    0.0000 N   0  0
   -1.4290   -0.8250    0.0000 C   0  0
   -0.7145   -0.4125    0.0000 C   0  0
    0.0000   -0.8250    0.0000 C   0  0
   -2.8602    1.3738    0.0000 H   0  0
  1  2  1  0
  2  3  2  0
  3  4  1  0
  4  5  2  0
  5  6  1  0
  5  7  1  0
  7  8  2  0
  7  9  1  0
  8  2  1  0
  9 10  2  0
 10 11  1  0
 11 12  2  0
 12 13  1  0
 13 14  2  0
 14 15  1  0
 14 21  1  0
 15 16  1  0
 15 25  1  0
 16 17  2  0
 16 18  1  0
 18 19  1  0
 19 20  1  0
 20 18  1  0
 21 22  2  0
 22 23  1  0
 23 12  1  0
 23 24  2  0
 24  9  1  0
M  END
> <CMPD_CHEMBLID>
CHEMBL3685130

> <STANDARD_TYPE>
Ki

> <RELATION>
=

> <STANDARD_VALUE>
2

> <STANDARD_UNITS>
nM

> <Molecular_Weight>
316.3963

$$$$

  SciTegic11272012012D

 34 38  0  0  0  0            999 V2000
    2.1455    0.2461    0.0000 Cl  0  0
    2.1445   -0.4139    0.0000 C   0  0
    2.8583   -0.8275    0.0000 C   0  0
    2.8570   -1.6525    0.0000 C   0  0
    2.1419   -2.0639    0.0000 C   0  0
    2.1388   -2.8893    0.0000 N   0  0
    1.4227   -3.2999    0.0000 C   0  0
    0.8523   -2.9680    0.0000 O   0  0
    1.4198   -4.1253    0.0000 C   0  0
    0.7046   -4.5367    0.0000 C   0  0
    0.7033   -5.3617    0.0000 C   0  0
    1.4171   -5.7754    0.0000 O   0  0
    2.1322   -5.3640    0.0000 C   0  0
    2.1336   -4.5390    0.0000 C   0  0
    1.4281   -1.6502    0.0000 C   0  0
    1.4293   -0.8252    0.0000 C   0  0
    0.7144   -0.4125    0.0000 C   0  0
    0.7144    0.4125    0.0000 C   0  0
    0.0000    0.8250    0.0000 C   0  0
   -0.7144    0.4125    0.0000 C   0  0
   -1.4290    0.8250    0.0000 C   0  0
   -2.1434    0.4125    0.0000 C   0  0
   -2.8591    0.8237    0.0000 N   0  0
   -3.5734    0.4100    0.0000 C   0  0
   -3.5722   -0.2500    0.0000 O   0  0
   -4.2891    0.8213    0.0000 C   0  0
   -5.0706    0.7961    0.0000 C   0  0
   -4.6581    1.5106    0.0000 C   0  0
   -2.1434   -0.4125    0.0000 N   0  0
   -1.4290   -0.8250    0.0000 C   0  0
   -0.7144   -0.4125    0.0000 C   0  0
    0.0000   -0.8250    0.0000 C   0  0
   -2.8601    1.3737    0.0000 H   0  0
    2.6143   -3.1659    0.0000 H   0  0
  1  2  1  0
  2  3  2  0
  3  4  1  0
  4  5  2  0
  5  6  1  0
  5 15  1  0
  6  7  1  0
  6 34  1  0
  7  8  2  0
  7  9  1  0
  9 10  1  0
 10 11  1  0
 11 12  1  0
 12 13  1  0
 13 14  1  0
 14  9  1  0
 15 16  2  0
 16  2  1  0
 16 17  1  0
 17 18  2  0
 18 19  1  0
 19 20  2  0
 20 21  1  0
 21 22  2  0
 22 23  1  0
 22 29  1  0
 23 24  1  0
 23 33  1  0
 24 25  2  0
 24 26  1  0
 26 27  1  0
 27 28  1  0
 28 26  1  0
 29 30  2  0
 30 31  1  0
 31 20  1  0
 31 32  2  0
 32 17  1  0
M  END
> <CMPD_CHEMBLID>
CHEMBL3685195

> <STANDARD_TYPE>
Ki

> <RELATION>
=

> <STANDARD_VALUE>
2

> <STANDARD_UNITS>
nM

> <Molecular_Weight>
449.92936

$$$$

  SciTegic11272012012D

 24 26  0  0  0  0            999 V2000
    0.8552   -1.9812    0.0000 C   0  0
    1.4273   -1.6522    0.0000 C   0  0
    2.1414   -2.0664    0.0000 C   0  0
    2.1402   -2.8919    0.0000 C   0  0
    2.8542   -3.3061    0.0000 O   0  0
    1.4285   -0.8267    0.0000 O   0  0
    0.7145   -0.4125    0.0000 C   0  0
    0.7145    0.4125    0.0000 C   0  0
    0.0000    0.8250    0.0000 C   0  0
   -0.7145    0.4125    0.0000 C   0  0
   -1.4290    0.8250    0.0000 C   0  0
   -2.1435    0.4125    0.0000 C   0  0
   -2.8592    0.8238    0.0000 N   0  0
   -3.5735    0.4100    0.0000 C   0  0
   -3.5723   -0.2500    0.0000 O   0  0
   -4.2892    0.8213    0.0000 C   0  0
   -5.0707    0.7961    0.0000 C   0  0
   -4.6582    1.5106    0.0000 C   0  0
   -2.1435   -0.4125    0.0000 N   0  0
   -1.4290   -0.8250    0.0000 C   0  0
   -0.7145   -0.4125    0.0000 C   0  0
    0.0000   -0.8250    0.0000 C   0  0
   -2.8602    1.3738    0.0000 H   0  0
    2.8535   -3.8561    0.0000 H   0  0
  1  2  1  0
  2  3  1  0
  2  6  1  0
  3  4  1  0
  4  5  1  0
  5 24  1  0
  6  7  1  0
  7  8  2  0
  8  9  1  0
  9 10  2  0
 10 11  1  0
 11 12  2  0
 12 13  1  0
 12 19  1  0
 13 14  1  0
 13 23  1  0
 14 15  2  0
 14 16  1  0
 16 17  1  0
 17 18  1  0
 18 16  1  0
 19 20  2  0
 20 21  1  0
 21 10  1  0
 21 22  2  0
 22  7  1  0
M  END
> <CMPD_CHEMBLID>
CHEMBL3685194

> <STANDARD_TYPE>
Ki

> <RELATION>
=

> <STANDARD_VALUE>
2

> <STANDARD_UNITS>
nM

> <Molecular_Weight>
300.3523

$$$$

  SciTegic11272012012D

 26 29  0  0  0  0            999 V2000
    2.0013   -0.4930    0.0000 C   0  0
    1.4302   -0.8237    0.0000 O   0  0
    0.7144   -0.4125    0.0000 C   0  0
    0.7144    0.4125    0.0000 N   0  0
    0.0000    0.8250    0.0000 C   0  0
   -0.7144    0.4125    0.0000 C   0  0
   -0.7144   -0.4125    0.0000 C   0  0
   -1.4290   -0.8250    0.0000 C   0  0
   -1.4290   -1.6500    0.0000 N   0  0
   -0.7144   -2.0625    0.0000 C   0  0
   -0.7127   -2.8879    0.0000 N   0  0
    0.0027   -3.2997    0.0000 C   0  0
    0.5737   -2.9687    0.0000 O   0  0
    0.0044   -4.1251    0.0000 C   0  0
    0.4168   -4.7893    0.0000 C   0  0
   -0.4082   -4.7893    0.0000 C   0  0
    0.0000   -1.6500    0.0000 C   0  0
    0.0000   -0.8250    0.0000 C   0  0
    0.0000    1.6504    0.0000 C   0  0
   -0.7151    2.0618    0.0000 C   0  0
   -0.7164    2.8868    0.0000 C   0  0
   -0.0026    3.3005    0.0000 C   0  0
    0.7125    2.8891    0.0000 C   0  0
    0.7138    2.0641    0.0000 C   0  0
    1.2859    1.7350    0.0000 Cl  0  0
   -1.1886   -3.1638    0.0000 H   0  0
  1  2  1  0
  2  3  1  0
  3  4  2  0
  4  5  1  0
  5  6  2  0
  5 19  1  0
  6  7  1  0
  7  8  2  0
  8  9  1  0
  9 10  2  0
 10 11  1  0
 10 17  1  0
 11 12  1  0
 11 26  1  0
 12 13  2  0
 12 14  1  0
 14 15  1  0
 15 16  1  0
 16 14  1  0
 17 18  2  0
 18  3  1  0
 18  7  1  0
 19 20  2  0
 20 21  1  0
 21 22  2  0
 22 23  1  0
 23 24  2  0
 24 19  1  0
 24 25  1  0
M  END
> <CMPD_CHEMBLID>
CHEMBL3689641

> <STANDARD_TYPE>
Ki

> <RELATION>
=

> <STANDARD_VALUE>
2

> <STANDARD_UNITS>
nM

> <Molecular_Weight>
353.80224

$$$$

  SciTegic11272012012D

 33 37  0  0  0  0            999 V2000
    2.1456    0.2461    0.0000 C   0  0
    2.1445   -0.4139    0.0000 C   0  0
    2.8583   -0.8275    0.0000 C   0  0
    3.4305   -0.4984    0.0000 F   0  0
    2.8570   -1.6525    0.0000 C   0  0
    2.1419   -2.0639    0.0000 C   0  0
    2.1389   -2.8894    0.0000 N   0  0
    1.4228   -3.2999    0.0000 C   0  0
    0.8523   -2.9681    0.0000 O   0  0
    1.4198   -4.1254    0.0000 C   0  0
    0.8355   -4.6794    0.0000 C   0  0
    1.4180   -5.2637    0.0000 C   0  0
    2.0023   -4.6813    0.0000 C   0  0
    1.4281   -1.6502    0.0000 C   0  0
    1.4293   -0.8252    0.0000 C   0  0
    0.7145   -0.4125    0.0000 C   0  0
    0.7145    0.4125    0.0000 C   0  0
    0.0000    0.8250    0.0000 C   0  0
   -0.7145    0.4125    0.0000 C   0  0
   -1.4290    0.8250    0.0000 C   0  0
   -2.1434    0.4125    0.0000 C   0  0
   -2.8592    0.8237    0.0000 N   0  0
   -3.5735    0.4100    0.0000 C   0  0
   -3.5723   -0.2500    0.0000 O   0  0
   -4.2892    0.8213    0.0000 C   0  0
   -5.0706    0.7961    0.0000 C   0  0
   -4.6581    1.5106    0.0000 C   0  0
   -2.1434   -0.4125    0.0000 N   0  0
   -1.4290   -0.8250    0.0000 C   0  0
   -0.7145   -0.4125    0.0000 C   0  0
    0.0000   -0.8250    0.0000 C   0  0
   -2.8601    1.3738    0.0000 H   0  0
    2.6143   -3.1660    0.0000 H   0  0
  1  2  1  0
  2  3  2  0
  3  4  1  0
  3  5  1  0
  5  6  2  0
  6  7  1  0
  6 14  1  0
  7  8  1  0
  7 33  1  0
  8  9  2  0
  8 10  1  0
 10 11  1  0
 11 12  1  0
 12 13  1  0
 13 10  1  0
 14 15  2  0
 15  2  1  0
 15 16  1  0
 16 17  2  0
 17 18  1  0
 18 19  2  0
 19 20  1  0
 20 21  2  0
 21 22  1  0
 21 28  1  0
 22 23  1  0
 22 32  1  0
 23 24  2  0
 23 25  1  0
 25 26  1  0
 26 27  1  0
 27 25  1  0
 28 29  2  0
 29 30  1  0
 30 19  1  0
 30 31  2  0
 31 16  1  0
M  END
> <CMPD_CHEMBLID>
CHEMBL3689626

> <STANDARD_TYPE>
Ki

> <RELATION>
=

> <STANDARD_VALUE>
2

> <STANDARD_UNITS>
nM

> <Molecular_Weight>
417.47536

$$$$

  SciTegic11272012012D

 27 30  0  0  0  0            999 V2000
    2.1456    0.2461    0.0000 C   0  0
    2.1446   -0.4139    0.0000 C   0  0
    2.8584   -0.8275    0.0000 N   0  0
    2.8570   -1.6525    0.0000 C   0  0
    3.5704   -2.0679    0.0000 N   0  0
    2.1419   -2.0639    0.0000 N   0  0
    1.4281   -1.6503    0.0000 C   0  0
    1.4293   -0.8252    0.0000 C   0  0
    0.7145   -0.4125    0.0000 C   0  0
    0.7145    0.4125    0.0000 C   0  0
    0.0000    0.8250    0.0000 C   0  0
   -0.7145    0.4125    0.0000 C   0  0
   -1.4290    0.8250    0.0000 C   0  0
   -2.1435    0.4125    0.0000 C   0  0
   -2.8592    0.8238    0.0000 N   0  0
   -3.5735    0.4100    0.0000 C   0  0
   -3.5723   -0.2500    0.0000 O   0  0
   -4.2892    0.8213    0.0000 C   0  0
   -5.0707    0.7961    0.0000 C   0  0
   -4.6582    1.5106    0.0000 C   0  0
   -2.1435   -0.4125    0.0000 N   0  0
   -1.4290   -0.8250    0.0000 C   0  0
   -0.7145   -0.4125    0.0000 C   0  0
    0.0000   -0.8250    0.0000 C   0  0
   -2.8602    1.3738    0.0000 H   0  0
    3.5688   -2.6179    0.0000 H   0  0
    4.0476   -1.7945    0.0000 H   0  0
  1  2  1  0
  2  3  2  0
  3  4  1  0
  4  5  1  0
  4  6  2  0
  5 26  1  0
  5 27  1  0
  6  7  1  0
  7  8  2  0
  8  2  1  0
  8  9  1  0
  9 10  2  0
 10 11  1  0
 11 12  2  0
 12 13  1  0
 13 14  2  0
 14 15  1  0
 14 21  1  0
 15 16  1  0
 15 25  1  0
 16 17  2  0
 16 18  1  0
 18 19  1  0
 19 20  1  0
 20 18  1  0
 21 22  2  0
 22 23  1  0
 23 12  1  0
 23 24  2  0
 24  9  1  0
M  END
> <CMPD_CHEMBLID>
CHEMBL3689560

> <STANDARD_TYPE>
Ki

> <RELATION>
=

> <STANDARD_VALUE>
2

> <STANDARD_UNITS>
nM

> <Molecular_Weight>
319.36048

$$$$

  SciTegic11272012012D

 31 34  0  0  0  0            999 V2000
    4.1468   -0.7363    0.0000 C   0  0
    3.5745   -0.4075    0.0000 N   0  0
    2.8602   -0.8213    0.0000 C   0  0
    2.8614   -1.4813    0.0000 O   0  0
    2.1445   -0.4100    0.0000 C   0  0
    1.4302   -0.8237    0.0000 C   0  0
    0.7145   -0.4125    0.0000 C   0  0
    0.7145    0.4125    0.0000 C   0  0
    0.0000    0.8250    0.0000 N   0  0
   -0.7145    0.4125    0.0000 C   0  0
   -1.4285    0.8267    0.0000 N   0  0
   -0.7145   -0.4125    0.0000 C   0  0
   -1.3273   -0.9642    0.0000 C   0  0
   -0.9918   -1.7178    0.0000 C   0  0
   -0.1713   -1.6316    0.0000 S   0  0
    0.0000   -0.8250    0.0000 C   0  0
   -2.1347   -0.7924    0.0000 C   0  0
   -2.4465   -0.0316    0.0000 C   0  0
   -3.2641    0.0788    0.0000 C   0  0
   -3.5147    0.6893    0.0000 F   0  0
   -3.7684   -0.5742    0.0000 C   0  0
   -4.5907   -0.6360    0.0000 N   0  0
   -4.7859   -1.4376    0.0000 C   0  0
   -5.3964   -1.6882    0.0000 C   0  0
   -4.0838   -1.8710    0.0000 C   0  0
   -3.4552   -1.3373    0.0000 C   0  0
   -2.6376   -1.4477    0.0000 C   0  0
   -4.9465   -0.2166    0.0000 H   0  0
   -1.4277    1.3767    0.0000 H   0  0
   -1.9053    0.5525    0.0000 H   0  0
    3.5736    0.1425    0.0000 H   0  0
  1  2  1  0
  2  3  1  0
  2 31  1  0
  3  4  2  0
  3  5  1  0
  5  6  2  0
  6  7  1  0
  7  8  2  0
  8  9  1  0
  9 10  2  0
 10 11  1  0
 10 12  1  0
 11 29  1  0
 11 30  1  0
 12 13  1  0
 13 14  2  0
 13 17  1  0
 14 15  1  0
 15 16  1  0
 16  7  1  0
 16 12  2  0
 17 18  2  0
 18 19  1  0
 19 20  1  0
 19 21  2  0
 21 22  1  0
 22 23  1  0
 22 28  1  0
 23 24  1  0
 23 25  2  0
 25 26  1  0
 26 21  1  0
 26 27  2  0
 27 17  1  0
M  END
> <CMPD_CHEMBLID>
CHEMBL2006778

> <STANDARD_TYPE>
Ki

> <RELATION>
=

> <STANDARD_VALUE>
2

> <STANDARD_UNITS>
nM

> <Molecular_Weight>
380.43858

$$$$

  SciTegic11272012012D

 23 26  0  0  0  0            999 V2000
    0.8551   -1.9812    0.0000 O   0  0
    1.4273   -1.6521    0.0000 C   0  0
    1.4285   -0.8267    0.0000 N   0  0
    0.7144   -0.4125    0.0000 C   0  0
    0.7144    0.4125    0.0000 C   0  0
    0.0000    0.8250    0.0000 C   0  0
    0.0000    1.6500    0.0000 C   0  0
   -0.7145    2.0625    0.0000 C   0  0
   -1.4290    1.6500    0.0000 C   0  0
   -1.4290    0.8250    0.0000 C   0  0
   -0.7144    0.4125    0.0000 C   0  0
   -0.7144   -0.4125    0.0000 C   0  0
    0.0000   -0.8250    0.0000 N   0  0
   -2.1438    2.0627    0.0000 C   0  0
   -2.1452    2.8877    0.0000 C   0  0
   -2.8603    3.2991    0.0000 C   0  0
   -3.5741    2.8855    0.0000 C   0  0
   -3.5728    2.0605    0.0000 C   0  0
   -2.8576    1.6491    0.0000 N   0  0
    2.1413   -2.0663    0.0000 C   0  0
    2.5103   -2.7557    0.0000 C   0  0
    2.9228   -2.0412    0.0000 C   0  0
    1.9053   -0.5525    0.0000 H   0  0
  1  2  2  0
  2  3  1  0
  2 20  1  0
  3  4  1  0
  3 23  1  0
  4  5  2  0
  5  6  1  0
  6  7  2  0
  7  8  1  0
  8  9  2  0
  9 10  1  0
  9 14  1  0
 10 11  2  0
 11  6  1  0
 11 12  1  0
 12 13  2  0
 13  4  1  0
 14 15  2  0
 15 16  1  0
 16 17  2  0
 17 18  1  0
 18 19  2  0
 19 14  1  0
 20 21  1  0
 21 22  1  0
 22 20  1  0
M  END
> <CMPD_CHEMBLID>
CHEMBL3685047

> <STANDARD_TYPE>
Ki

> <RELATION>
=

> <STANDARD_VALUE>
2

> <STANDARD_UNITS>
nM

> <Molecular_Weight>
289.3312

$$$$

  SciTegic11272012012D

 33 37  0  0  0  0            999 V2000
    2.1456    0.2461    0.0000 C   0  0
    2.1446   -0.4139    0.0000 C   0  0
    2.8584   -0.8275    0.0000 C   0  0
    2.8570   -1.6525    0.0000 C   0  0
    2.1419   -2.0639    0.0000 C   0  0
    1.4281   -1.6503    0.0000 C   0  0
    1.4293   -0.8252    0.0000 C   0  0
    0.7145   -0.4125    0.0000 C   0  0
    0.7145    0.4125    0.0000 C   0  0
    0.0000    0.8250    0.0000 C   0  0
   -0.7145    0.4125    0.0000 C   0  0
   -1.4290    0.8250    0.0000 C   0  0
   -2.1435    0.4125    0.0000 C   0  0
   -2.8592    0.8238    0.0000 N   0  0
   -3.5735    0.4100    0.0000 C   0  0
   -3.5723   -0.2500    0.0000 O   0  0
   -4.2892    0.8213    0.0000 C   0  0
   -5.0707    0.7961    0.0000 C   0  0
   -4.6582    1.5106    0.0000 C   0  0
   -2.1435   -0.4125    0.0000 N   0  0
   -1.4290   -0.8250    0.0000 C   0  0
   -0.7145   -0.4125    0.0000 C   0  0
    0.0000   -0.8250    0.0000 C   0  0
    2.1389   -2.8894    0.0000 C   0  0
    2.7094   -3.2213    0.0000 O   0  0
    1.4228   -3.3000    0.0000 N   0  0
    1.4198   -4.1254    0.0000 C   0  0
    0.8471   -4.4536    0.0000 C   0  0
    2.1730   -3.8888    0.0000 C   0  0
    2.3838   -4.6865    0.0000 O   0  0
    1.5861   -4.8972    0.0000 C   0  0
    0.9474   -3.0234    0.0000 H   0  0
   -2.8602    1.3738    0.0000 H   0  0
  1  2  1  0
  2  3  2  0
  3  4  1  0
  4  5  2  0
  5  6  1  0
  5 24  1  0
  6  7  2  0
  7  2  1  0
  7  8  1  0
  8  9  2  0
  9 10  1  0
 10 11  2  0
 11 12  1  0
 12 13  2  0
 13 14  1  0
 13 20  1  0
 14 15  1  0
 14 33  1  0
 15 16  2  0
 15 17  1  0
 17 18  1  0
 18 19  1  0
 19 17  1  0
 20 21  2  0
 21 22  1  0
 22 11  1  0
 22 23  2  0
 23  8  1  0
 24 25  2  0
 24 26  1  0
 26 27  1  0
 26 32  1  0
 27 28  1  0
 27 29  1  0
 29 30  1  0
 30 31  1  0
 31 27  1  0
M  END
> <CMPD_CHEMBLID>
CHEMBL3689629

> <STANDARD_TYPE>
Ki

> <RELATION>
=

> <STANDARD_VALUE>
2

> <STANDARD_UNITS>
nM

> <Molecular_Weight>
415.4843

$$$$

  SciTegic11272012012D

 27 31  0  0  0  0            999 V2000
    2.1455    0.2461    0.0000 Cl  0  0
    2.1445   -0.4139    0.0000 C   0  0
    2.8583   -0.8275    0.0000 C   0  0
    2.8570   -1.6525    0.0000 C   0  0
    2.1419   -2.0639    0.0000 C   0  0
    1.4281   -1.6502    0.0000 C   0  0
    1.4293   -0.8252    0.0000 C   0  0
    0.7144   -0.4125    0.0000 C   0  0
    0.7144    0.4125    0.0000 C   0  0
    0.0000    0.8250    0.0000 C   0  0
    0.0000    1.6500    0.0000 C   0  0
   -0.7145    2.0625    0.0000 N   0  0
   -1.4290    1.6500    0.0000 C   0  0
   -2.1447    2.0612    0.0000 N   0  0
   -2.8590    1.6475    0.0000 C   0  0
   -2.8578    0.9875    0.0000 O   0  0
   -3.5747    2.0588    0.0000 C   0  0
   -4.3561    2.0337    0.0000 C   0  0
   -3.9436    2.7481    0.0000 C   0  0
   -1.4290    0.8250    0.0000 C   0  0
   -0.7144    0.4125    0.0000 C   0  0
   -0.7144   -0.4125    0.0000 C   0  0
    0.0000   -0.8250    0.0000 N   0  0
   -1.4293   -0.8252    0.0000 C   0  0
   -2.2108   -0.8013    0.0000 C   0  0
   -1.7972   -1.5151    0.0000 C   0  0
   -2.1457    2.6112    0.0000 H   0  0
  1  2  1  0
  2  3  2  0
  3  4  1  0
  4  5  2  0
  5  6  1  0
  6  7  2  0
  7  2  1  0
  7  8  1  0
  8  9  2  0
  9 10  1  0
 10 11  2  0
 11 12  1  0
 12 13  2  0
 13 14  1  0
 13 20  1  0
 14 15  1  0
 14 27  1  0
 15 16  2  0
 15 17  1  0
 17 18  1  0
 18 19  1  0
 19 17  1  0
 20 21  2  0
 21 10  1  0
 21 22  1  0
 22 23  2  0
 22 24  1  0
 23  8  1  0
 24 25  1  0
 25 26  1  0
 26 24  1  0
M  END
> <CMPD_CHEMBLID>
CHEMBL3689643

> <STANDARD_TYPE>
Ki

> <RELATION>
=

> <STANDARD_VALUE>
2

> <STANDARD_UNITS>
nM

> <Molecular_Weight>
363.84012

$$$$

  SciTegic11272012012D

 23 26  0  0  0  0            999 V2000
    0.8551   -1.9812    0.0000 O   0  0
    1.4273   -1.6521    0.0000 C   0  0
    1.4285   -0.8267    0.0000 N   0  0
    0.7144   -0.4125    0.0000 C   0  0
    0.7144    0.4125    0.0000 C   0  0
    0.0000    0.8250    0.0000 C   0  0
    0.0000    1.6500    0.0000 C   0  0
   -0.7145    2.0625    0.0000 N   0  0
   -1.4290    1.6500    0.0000 C   0  0
   -1.4290    0.8250    0.0000 C   0  0
   -0.7144    0.4125    0.0000 C   0  0
   -0.7144   -0.4125    0.0000 C   0  0
    0.0000   -0.8250    0.0000 N   0  0
   -2.1438    2.0627    0.0000 C   0  0
   -2.1452    2.8877    0.0000 C   0  0
   -2.8603    3.2991    0.0000 C   0  0
   -3.5741    2.8855    0.0000 C   0  0
   -3.5728    2.0605    0.0000 C   0  0
   -2.8576    1.6491    0.0000 C   0  0
    2.1413   -2.0663    0.0000 C   0  0
    2.5103   -2.7557    0.0000 C   0  0
    2.9228   -2.0412    0.0000 C   0  0
    1.9053   -0.5525    0.0000 H   0  0
  1  2  2  0
  2  3  1  0
  2 20  1  0
  3  4  1  0
  3 23  1  0
  4  5  2  0
  5  6  1  0
  6  7  2  0
  7  8  1  0
  8  9  2  0
  9 10  1  0
  9 14  1  0
 10 11  2  0
 11  6  1  0
 11 12  1  0
 12 13  2  0
 13  4  1  0
 14 15  1  0
 15 16  1  0
 16 17  1  0
 17 18  1  0
 18 19  1  0
 19 14  1  0
 20 21  1  0
 21 22  1  0
 22 20  1  0
M  END
> <CMPD_CHEMBLID>
CHEMBL3689644

> <STANDARD_TYPE>
Ki

> <RELATION>
=

> <STANDARD_VALUE>
2

> <STANDARD_UNITS>
nM

> <Molecular_Weight>
295.37884

$$$$

  SciTegic11272012012D

 26 28  0  0  0  0            999 V2000
    2.1456    0.2461    0.0000 C   0  0
    2.1445   -0.4139    0.0000 C   0  0
    2.8583   -0.8275    0.0000 C   0  0
    2.8570   -1.6525    0.0000 C   0  0
    2.1419   -2.0639    0.0000 C   0  0
    2.1408   -2.7239    0.0000 F   0  0
    1.4281   -1.6502    0.0000 C   0  0
    1.4293   -0.8252    0.0000 C   0  0
    0.7145   -0.4125    0.0000 C   0  0
    0.7145    0.4125    0.0000 C   0  0
    0.0000    0.8250    0.0000 C   0  0
   -0.7145    0.4125    0.0000 C   0  0
   -1.4290    0.8250    0.0000 C   0  0
   -2.1434    0.4125    0.0000 C   0  0
   -2.8592    0.8237    0.0000 N   0  0
   -3.5735    0.4100    0.0000 C   0  0
   -3.5723   -0.2500    0.0000 O   0  0
   -4.2892    0.8213    0.0000 C   0  0
   -4.8603    0.4904    0.0000 C   0  0
   -4.8613    1.1503    0.0000 C   0  0
   -4.2903    1.4813    0.0000 C   0  0
   -2.1434   -0.4125    0.0000 N   0  0
   -1.4290   -0.8250    0.0000 C   0  0
   -0.7145   -0.4125    0.0000 C   0  0
    0.0000   -0.8250    0.0000 C   0  0
   -2.8601    1.3738    0.0000 H   0  0
  1  2  1  0
  2  3  2  0
  3  4  1  0
  4  5  2  0
  5  6  1  0
  5  7  1  0
  7  8  2  0
  8  2  1  0
  8  9  1  0
  9 10  2  0
 10 11  1  0
 11 12  2  0
 12 13  1  0
 13 14  2  0
 14 15  1  0
 14 22  1  0
 15 16  1  0
 15 26  1  0
 16 17  2  0
 16 18  1  0
 18 19  1  0
 18 20  1  0
 18 21  1  0
 22 23  2  0
 23 24  1  0
 24 12  1  0
 24 25  2  0
 25  9  1  0
M  END
> <CMPD_CHEMBLID>
CHEMBL3685043

> <STANDARD_TYPE>
Ki

> <RELATION>
=

> <STANDARD_VALUE>
2

> <STANDARD_UNITS>
nM

> <Molecular_Weight>
336.40264

$$$$

  SciTegic11272012012D

 26 29  0  0  0  0            999 V2000
    3.5684   -2.7279    0.0000 C   0  0
    3.5704   -2.0679    0.0000 O   0  0
    2.8570   -1.6525    0.0000 C   0  0
    2.8584   -0.8275    0.0000 C   0  0
    2.1446   -0.4139    0.0000 C   0  0
    2.1456    0.2461    0.0000 C   0  0
    1.4293   -0.8252    0.0000 C   0  0
    1.4281   -1.6503    0.0000 C   0  0
    2.1419   -2.0639    0.0000 N   0  0
    0.7145   -0.4125    0.0000 C   0  0
    0.7145    0.4125    0.0000 C   0  0
    0.0000    0.8250    0.0000 C   0  0
   -0.7145    0.4125    0.0000 C   0  0
   -1.4290    0.8250    0.0000 C   0  0
   -2.1435    0.4125    0.0000 C   0  0
   -2.8592    0.8238    0.0000 N   0  0
   -3.5735    0.4100    0.0000 C   0  0
   -3.5723   -0.2500    0.0000 O   0  0
   -4.2892    0.8213    0.0000 C   0  0
   -5.0707    0.7961    0.0000 C   0  0
   -4.6582    1.5106    0.0000 C   0  0
   -2.1435   -0.4125    0.0000 N   0  0
   -1.4290   -0.8250    0.0000 C   0  0
   -0.7145   -0.4125    0.0000 C   0  0
    0.0000   -0.8250    0.0000 C   0  0
   -2.8602    1.3738    0.0000 H   0  0
  1  2  1  0
  2  3  1  0
  3  4  2  0
  4  5  1  0
  5  6  1  0
  5  7  2  0
  7  8  1  0
  7 10  1  0
  8  9  2  0
  9  3  1  0
 10 11  2  0
 11 12  1  0
 12 13  2  0
 13 14  1  0
 14 15  2  0
 15 16  1  0
 15 22  1  0
 16 17  1  0
 16 26  1  0
 17 18  2  0
 17 19  1  0
 19 20  1  0
 20 21  1  0
 21 19  1  0
 22 23  2  0
 23 24  1  0
 24 13  1  0
 24 25  2  0
 25 10  1  0
M  END
> <CMPD_CHEMBLID>
CHEMBL3689555

> <STANDARD_TYPE>
Ki

> <RELATION>
=

> <STANDARD_VALUE>
2

> <STANDARD_UNITS>
nM

> <Molecular_Weight>
333.38376

$$$$

  SciTegic11272012012D

 44 48  0  0  0  0            999 V2000
   -6.8803   -2.7055    0.0000 C   0  0
   -6.7274   -3.3475    0.0000 O   0  0
   -5.9365   -3.5839    0.0000 C   0  0
   -5.7442   -4.3862    0.0000 C   0  0
   -4.9533   -4.6207    0.0000 C   0  0
   -4.3546   -4.0531    0.0000 C   0  0
   -3.5627   -4.2862    0.0000 N   0  0
   -2.9646   -3.7174    0.0000 C   0  0
   -3.1195   -3.0758    0.0000 O   0  0
   -2.1727   -3.9505    0.0000 N   0  0
   -1.5745   -3.3816    0.0000 C   0  0
   -0.7828   -3.6135    0.0000 C   0  0
   -0.1861   -3.0437    0.0000 C   0  0
   -0.3810   -2.2449    0.0000 C   0  0
   -1.1730   -2.0103    0.0000 C   0  0
   -1.7696   -2.5800    0.0000 C   0  0
    0.1713   -1.6316    0.0000 C   0  0
    0.9918   -1.7178    0.0000 C   0  0
    1.3273   -0.9641    0.0000 S   0  0
    0.7144   -0.4125    0.0000 C   0  0
    0.7144    0.4125    0.0000 C   0  0
    0.0000    0.8250    0.0000 C   0  0
   -0.7144    0.4125    0.0000 N   0  0
   -0.7144   -0.4125    0.0000 C   0  0
   -1.4302   -0.8238    0.0000 N   0  0
    0.0000   -0.8250    0.0000 C   0  0
    1.4293    0.8252    0.0000 C   0  0
    2.1731    0.4848    0.0000 C   0  0
    2.7241    1.0988    0.0000 N   0  0
    2.3105    1.8126    0.0000 N   0  0
    2.6429    2.5666    0.0000 C   0  0
    2.1557    3.2329    0.0000 C   0  0
    1.3349    3.1456    0.0000 O   0  0
    2.4887    3.9882    0.0000 C   0  0
    2.0015    4.6546    0.0000 O   0  0
    1.5038    1.6398    0.0000 C   0  0
   -4.5469   -3.2508    0.0000 C   0  0
   -5.3379   -3.0162    0.0000 C   0  0
    2.2233    5.1579    0.0000 H   0  0
    1.0107    3.5899    0.0000 H   0  0
   -1.9061   -0.5481    0.0000 H   0  0
   -1.4311   -1.3738    0.0000 H   0  0
   -2.0436   -4.4851    0.0000 H   0  0
   -3.4336   -4.8208    0.0000 H   0  0
  1  2  1  0
  2  3  1  0
  3  4  2  0
  4  5  1  0
  5  6  2  0
  6  7  1  0
  6 37  1  0
  7  8  1  0
  7 44  1  0
  8  9  2  0
  8 10  1  0
 10 11  1  0
 10 43  1  0
 11 12  2  0
 12 13  1  0
 13 14  2  0
 14 15  1  0
 14 17  1  0
 15 16  2  0
 16 11  1  0
 17 18  2  0
 18 19  1  0
 19 20  1  0
 20 21  2  0
 21 22  1  0
 21 27  1  0
 22 23  2  0
 23 24  1  0
 24 25  1  0
 24 26  2  0
 25 41  1  0
 25 42  1  0
 26 17  1  0
 26 20  1  0
 27 28  1  0
 28 29  2  0
 29 30  1  0
 30 31  1  0
 30 36  1  0
 31 32  1  0
 32 33  1  0
 32 34  1  0
 33 40  1  0
 34 35  1  0
 35 39  1  0
 36 27  2  0
 37 38  2  0
 38  3  1  0
M  END
> <CMPD_CHEMBLID>
CHEMBL1965170

> <STANDARD_TYPE>
Ki

> <RELATION>
=

> <STANDARD_VALUE>
2

> <STANDARD_UNITS>
nM

> <Molecular_Weight>
530.59814

$$$$

  SciTegic11272012012D

 23 26  0  0  0  0            999 V2000
    0.8551   -1.9812    0.0000 O   0  0
    1.4273   -1.6521    0.0000 C   0  0
    1.4285   -0.8267    0.0000 N   0  0
    0.7144   -0.4125    0.0000 C   0  0
    0.7144    0.4125    0.0000 C   0  0
    0.0000    0.8250    0.0000 C   0  0
    0.0000    1.6500    0.0000 C   0  0
   -0.7145    2.0625    0.0000 C   0  0
   -1.4290    1.6500    0.0000 C   0  0
   -1.4290    0.8250    0.0000 C   0  0
   -0.7144    0.4125    0.0000 C   0  0
   -0.7144   -0.4125    0.0000 C   0  0
    0.0000   -0.8250    0.0000 N   0  0
   -2.1438    2.0627    0.0000 C   0  0
   -2.1452    2.8877    0.0000 C   0  0
   -2.8603    3.2991    0.0000 C   0  0
   -3.5741    2.8855    0.0000 C   0  0
   -3.5728    2.0605    0.0000 C   0  0
   -2.8576    1.6491    0.0000 C   0  0
    2.1413   -2.0663    0.0000 C   0  0
    2.5103   -2.7557    0.0000 C   0  0
    2.9228   -2.0412    0.0000 C   0  0
    1.9053   -0.5525    0.0000 H   0  0
  1  2  2  0
  2  3  1  0
  2 20  1  0
  3  4  1  0
  3 23  1  0
  4  5  2  0
  5  6  1  0
  6  7  2  0
  7  8  1  0
  8  9  2  0
  9 10  1  0
  9 14  1  0
 10 11  2  0
 11  6  1  0
 11 12  1  0
 12 13  2  0
 13  4  1  0
 14 15  1  0
 15 16  1  0
 16 17  1  0
 17 18  1  0
 18 19  1  0
 19 14  1  0
 20 21  1  0
 21 22  1  0
 22 20  1  0
M  END
> <CMPD_CHEMBLID>
CHEMBL3685027

> <STANDARD_TYPE>
Ki

> <RELATION>
=

> <STANDARD_VALUE>
2

> <STANDARD_UNITS>
nM

> <Molecular_Weight>
294.39078

$$$$

  SciTegic11272012012D

 24 27  0  0  0  0            999 V2000
    2.1456    0.2461    0.0000 C   0  0
    2.1446   -0.4139    0.0000 C   0  0
    2.8584   -0.8275    0.0000 C   0  0
    2.8570   -1.6525    0.0000 N   0  0
    2.1419   -2.0639    0.0000 C   0  0
    1.4281   -1.6503    0.0000 C   0  0
    1.4293   -0.8252    0.0000 C   0  0
    0.7145   -0.4125    0.0000 C   0  0
    0.7145    0.4125    0.0000 C   0  0
    0.0000    0.8250    0.0000 C   0  0
   -0.7145    0.4125    0.0000 C   0  0
   -1.4290    0.8250    0.0000 C   0  0
   -2.1435    0.4125    0.0000 C   0  0
   -2.8592    0.8238    0.0000 N   0  0
   -3.5735    0.4100    0.0000 C   0  0
   -3.5723   -0.2500    0.0000 O   0  0
   -4.2892    0.8213    0.0000 C   0  0
   -5.0707    0.7961    0.0000 C   0  0
   -4.6582    1.5106    0.0000 C   0  0
   -2.1435   -0.4125    0.0000 N   0  0
   -1.4290   -0.8250    0.0000 C   0  0
   -0.7145   -0.4125    0.0000 C   0  0
    0.0000   -0.8250    0.0000 C   0  0
   -2.8602    1.3738    0.0000 H   0  0
  1  2  1  0
  2  3  2  0
  3  4  1  0
  4  5  2  0
  5  6  1  0
  6  7  2  0
  7  2  1  0
  7  8  1  0
  8  9  2  0
  9 10  1  0
 10 11  2  0
 11 12  1  0
 12 13  2  0
 13 14  1  0
 13 20  1  0
 14 15  1  0
 14 24  1  0
 15 16  2  0
 15 17  1  0
 17 18  1  0
 18 19  1  0
 19 17  1  0
 20 21  2  0
 21 22  1  0
 22 11  1  0
 22 23  2  0
 23  8  1  0
M  END
> <CMPD_CHEMBLID>
CHEMBL3685078

> <STANDARD_TYPE>
Ki

> <RELATION>
=

> <STANDARD_VALUE>
2

> <STANDARD_UNITS>
nM

> <Molecular_Weight>
303.35778

$$$$

  SciTegic11272012012D

 25 28  0  0  0  0            999 V2000
    0.8560   -1.9794    0.0000 C   0  0
    1.4281   -1.6503    0.0000 C   0  0
    2.1419   -2.0639    0.0000 N   0  0
    2.8570   -1.6525    0.0000 C   0  0
    2.8584   -0.8275    0.0000 N   0  0
    2.1446   -0.4139    0.0000 C   0  0
    2.1456    0.2461    0.0000 C   0  0
    1.4293   -0.8252    0.0000 C   0  0
    0.7145   -0.4125    0.0000 C   0  0
    0.7145    0.4125    0.0000 C   0  0
    0.0000    0.8250    0.0000 C   0  0
   -0.7145    0.4125    0.0000 C   0  0
   -1.4290    0.8250    0.0000 C   0  0
   -2.1435    0.4125    0.0000 C   0  0
   -2.8592    0.8238    0.0000 N   0  0
   -3.5735    0.4100    0.0000 C   0  0
   -3.5723   -0.2500    0.0000 O   0  0
   -4.2892    0.8213    0.0000 C   0  0
   -5.0707    0.7961    0.0000 C   0  0
   -4.6582    1.5106    0.0000 C   0  0
   -2.1435   -0.4125    0.0000 N   0  0
   -1.4290   -0.8250    0.0000 C   0  0
   -0.7145   -0.4125    0.0000 C   0  0
    0.0000   -0.8250    0.0000 C   0  0
   -2.8602    1.3738    0.0000 H   0  0
  1  2  1  0
  2  3  2  0
  3  4  1  0
  4  5  2  0
  5  6  1  0
  6  7  1  0
  6  8  2  0
  8  2  1  0
  8  9  1  0
  9 10  2  0
 10 11  1  0
 11 12  2  0
 12 13  1  0
 13 14  2  0
 14 15  1  0
 14 21  1  0
 15 16  1  0
 15 25  1  0
 16 17  2  0
 16 18  1  0
 18 19  1  0
 19 20  1  0
 20 18  1  0
 21 22  2  0
 22 23  1  0
 23 12  1  0
 23 24  2  0
 24  9  1  0
M  END
> <CMPD_CHEMBLID>
CHEMBL3685081

> <STANDARD_TYPE>
Ki

> <RELATION>
=

> <STANDARD_VALUE>
2

> <STANDARD_UNITS>
nM

> <Molecular_Weight>
318.37242

$$$$

  SciTegic11272012012D

 26 29  0  0  0  0            999 V2000
    2.7201    0.7399    0.0000 C   0  0
    2.1476    0.4116    0.0000 O   0  0
    2.1445   -0.4139    0.0000 C   0  0
    2.8583   -0.8275    0.0000 C   0  0
    2.8570   -1.6525    0.0000 C   0  0
    2.1419   -2.0639    0.0000 C   0  0
    2.1408   -2.7239    0.0000 Cl  0  0
    1.4281   -1.6502    0.0000 C   0  0
    1.4293   -0.8252    0.0000 C   0  0
    0.7145   -0.4125    0.0000 C   0  0
    0.7145    0.4125    0.0000 C   0  0
    0.0000    0.8250    0.0000 C   0  0
   -0.7145    0.4125    0.0000 C   0  0
   -1.4290    0.8250    0.0000 C   0  0
   -2.1434    0.4125    0.0000 C   0  0
   -2.8592    0.8237    0.0000 N   0  0
   -3.5735    0.4100    0.0000 C   0  0
   -3.5723   -0.2500    0.0000 O   0  0
   -4.2892    0.8213    0.0000 C   0  0
   -5.0706    0.7961    0.0000 C   0  0
   -4.6581    1.5106    0.0000 C   0  0
   -2.1434   -0.4125    0.0000 N   0  0
   -1.4290   -0.8250    0.0000 C   0  0
   -0.7145   -0.4125    0.0000 C   0  0
    0.0000   -0.8250    0.0000 C   0  0
   -2.8601    1.3738    0.0000 H   0  0
  1  2  1  0
  2  3  1  0
  3  4  2  0
  4  5  1  0
  5  6  2  0
  6  7  1  0
  6  8  1  0
  8  9  2  0
  9  3  1  0
  9 10  1  0
 10 11  2  0
 11 12  1  0
 12 13  2  0
 13 14  1  0
 14 15  2  0
 15 16  1  0
 15 22  1  0
 16 17  1  0
 16 26  1  0
 17 18  2  0
 17 19  1  0
 19 20  1  0
 20 21  1  0
 21 19  1  0
 22 23  2  0
 23 24  1  0
 24 13  1  0
 24 25  2  0
 25 10  1  0
M  END
> <CMPD_CHEMBLID>
CHEMBL3685000

> <STANDARD_TYPE>
Ki

> <RELATION>
=

> <STANDARD_VALUE>
2

> <STANDARD_UNITS>
nM

> <Molecular_Weight>
352.81418

$$$$

  SciTegic11272012012D

 23 26  0  0  0  0            999 V2000
    2.3076    0.1614    0.0000 C   0  0
    2.1732   -0.4848    0.0000 N   0  0
    2.7243   -1.0988    0.0000 N   0  0
    2.3106   -1.8126    0.0000 C   0  0
    1.5039   -1.6399    0.0000 C   0  0
    1.4293   -0.8252    0.0000 C   0  0
    0.7145   -0.4125    0.0000 C   0  0
    0.7145    0.4125    0.0000 C   0  0
    0.0000    0.8250    0.0000 C   0  0
   -0.7145    0.4125    0.0000 C   0  0
   -1.4290    0.8250    0.0000 C   0  0
   -2.1435    0.4125    0.0000 C   0  0
   -2.8592    0.8238    0.0000 N   0  0
   -3.5735    0.4100    0.0000 C   0  0
   -3.5723   -0.2500    0.0000 O   0  0
   -4.2892    0.8213    0.0000 C   0  0
   -5.0707    0.7961    0.0000 C   0  0
   -4.6582    1.5106    0.0000 C   0  0
   -2.1435   -0.4125    0.0000 N   0  0
   -1.4290   -0.8250    0.0000 C   0  0
   -0.7145   -0.4125    0.0000 C   0  0
    0.0000   -0.8250    0.0000 C   0  0
   -2.8602    1.3738    0.0000 H   0  0
  1  2  1  0
  2  3  1  0
  3  4  2  0
  4  5  1  0
  5  6  2  0
  6  2  1  0
  6  7  1  0
  7  8  2  0
  8  9  1  0
  9 10  2  0
 10 11  1  0
 11 12  2  0
 12 13  1  0
 12 19  1  0
 13 14  1  0
 13 23  1  0
 14 15  2  0
 14 16  1  0
 16 17  1  0
 17 18  1  0
 18 16  1  0
 19 20  2  0
 20 21  1  0
 21 10  1  0
 21 22  2  0
 22  7  1  0
M  END
> <CMPD_CHEMBLID>
CHEMBL3685084

> <STANDARD_TYPE>
Ki

> <RELATION>
=

> <STANDARD_VALUE>
2

> <STANDARD_UNITS>
nM

> <Molecular_Weight>
292.33514

$$$$

  SciTegic11272012012D

 38 42  0  0  0  0            999 V2000
    2.1455    0.2461    0.0000 C   0  0
    2.1445   -0.4139    0.0000 C   0  0
    2.8583   -0.8275    0.0000 C   0  0
    2.8570   -1.6525    0.0000 C   0  0
    2.1419   -2.0639    0.0000 C   0  0
    2.1388   -2.8893    0.0000 N   0  0
    1.4227   -3.2999    0.0000 C   0  0
    0.8523   -2.9680    0.0000 O   0  0
    1.4198   -4.1253    0.0000 C   0  0
    0.7046   -4.5367    0.0000 C   0  0
    0.7033   -5.3617    0.0000 C   0  0
    1.4171   -5.7754    0.0000 C   0  0
    2.1322   -5.3640    0.0000 C   0  0
    2.1336   -4.5390    0.0000 C   0  0
    2.8464   -5.7779    0.0000 C   0  0
    2.8458   -6.4379    0.0000 F   0  0
    3.4185   -5.4486    0.0000 F   0  0
    3.4176   -6.1086    0.0000 F   0  0
    1.4281   -1.6502    0.0000 C   0  0
    1.4293   -0.8252    0.0000 C   0  0
    0.7144   -0.4125    0.0000 C   0  0
    0.7144    0.4125    0.0000 C   0  0
    0.0000    0.8250    0.0000 C   0  0
   -0.7144    0.4125    0.0000 C   0  0
   -1.4290    0.8250    0.0000 C   0  0
   -2.1434    0.4125    0.0000 C   0  0
   -2.8591    0.8237    0.0000 N   0  0
   -3.5734    0.4100    0.0000 C   0  0
   -3.5722   -0.2500    0.0000 O   0  0
   -4.2891    0.8213    0.0000 C   0  0
   -5.0706    0.7961    0.0000 C   0  0
   -4.6581    1.5106    0.0000 C   0  0
   -2.1434   -0.4125    0.0000 N   0  0
   -1.4290   -0.8250    0.0000 C   0  0
   -0.7144   -0.4125    0.0000 C   0  0
    0.0000   -0.8250    0.0000 C   0  0
   -2.8601    1.3737    0.0000 H   0  0
    2.6143   -3.1659    0.0000 H   0  0
  1  2  1  0
  2  3  2  0
  3  4  1  0
  4  5  2  0
  5  6  1  0
  5 19  1  0
  6  7  1  0
  6 38  1  0
  7  8  2  0
  7  9  1  0
  9 10  2  0
 10 11  1  0
 11 12  2  0
 12 13  1  0
 13 14  2  0
 13 15  1  0
 14  9  1  0
 15 16  1  0
 15 17  1  0
 15 18  1  0
 19 20  2  0
 20  2  1  0
 20 21  1  0
 21 22  2  0
 22 23  1  0
 23 24  2  0
 24 25  1  0
 25 26  2  0
 26 27  1  0
 26 33  1  0
 27 28  1  0
 27 37  1  0
 28 29  2  0
 28 30  1  0
 30 31  1  0
 31 32  1  0
 32 30  1  0
 33 34  2  0
 34 35  1  0
 35 24  1  0
 35 36  2  0
 36 21  1  0
M  END
> <CMPD_CHEMBLID>
CHEMBL3685175

> <STANDARD_TYPE>
Ki

> <RELATION>
=

> <STANDARD_VALUE>
2

> <STANDARD_UNITS>
nM

> <Molecular_Weight>
489.48839

$$$$

  SciTegic11272012012D

 25 28  0  0  0  0            999 V2000
    2.1456    0.2461    0.0000 C   0  0
    2.1446   -0.4139    0.0000 C   0  0
    2.8584   -0.8275    0.0000 C   0  0
    2.8570   -1.6525    0.0000 N   0  0
    2.1419   -2.0639    0.0000 C   0  0
    2.1409   -2.7239    0.0000 F   0  0
    1.4281   -1.6503    0.0000 C   0  0
    1.4293   -0.8252    0.0000 C   0  0
    0.7145   -0.4125    0.0000 C   0  0
    0.7145    0.4125    0.0000 C   0  0
    0.0000    0.8250    0.0000 C   0  0
   -0.7145    0.4125    0.0000 C   0  0
   -1.4290    0.8250    0.0000 C   0  0
   -2.1435    0.4125    0.0000 C   0  0
   -2.8592    0.8238    0.0000 N   0  0
   -3.5735    0.4100    0.0000 C   0  0
   -3.5723   -0.2500    0.0000 O   0  0
   -4.2892    0.8213    0.0000 C   0  0
   -5.0707    0.7961    0.0000 C   0  0
   -4.6582    1.5106    0.0000 C   0  0
   -2.1435   -0.4125    0.0000 N   0  0
   -1.4290   -0.8250    0.0000 C   0  0
   -0.7145   -0.4125    0.0000 C   0  0
    0.0000   -0.8250    0.0000 C   0  0
   -2.8602    1.3738    0.0000 H   0  0
  1  2  1  0
  2  3  2  0
  3  4  1  0
  4  5  2  0
  5  6  1  0
  5  7  1  0
  7  8  2  0
  8  2  1  0
  8  9  1  0
  9 10  2  0
 10 11  1  0
 11 12  2  0
 12 13  1  0
 13 14  2  0
 14 15  1  0
 14 21  1  0
 15 16  1  0
 15 25  1  0
 16 17  2  0
 16 18  1  0
 18 19  1  0
 19 20  1  0
 20 18  1  0
 21 22  2  0
 22 23  1  0
 23 12  1  0
 23 24  2  0
 24  9  1  0
M  END
> <CMPD_CHEMBLID>
CHEMBL3689580

> <STANDARD_TYPE>
Ki

> <RELATION>
=

> <STANDARD_VALUE>
2

> <STANDARD_UNITS>
nM

> <Molecular_Weight>
321.34824

$$$$

  SciTegic11272012012D

 22 25  0  0  0  0            999 V2000
    0.8551   -1.9812    0.0000 O   0  0
    1.4273   -1.6521    0.0000 C   0  0
    1.4285   -0.8267    0.0000 N   0  0
    0.7144   -0.4125    0.0000 C   0  0
    0.7144    0.4125    0.0000 C   0  0
    0.0000    0.8250    0.0000 C   0  0
    0.0000    1.6500    0.0000 C   0  0
   -0.7145    2.0625    0.0000 C   0  0
   -1.4290    1.6500    0.0000 C   0  0
   -1.4290    0.8250    0.0000 C   0  0
   -0.7144    0.4125    0.0000 C   0  0
   -0.7144   -0.4125    0.0000 C   0  0
    0.0000   -0.8250    0.0000 N   0  0
   -2.1438    2.0627    0.0000 C   0  0
   -2.2209    2.8770    0.0000 C   0  0
   -3.0282    3.0473    0.0000 C   0  0
   -3.4395    2.3322    0.0000 C   0  0
   -2.8865    1.7200    0.0000 C   0  0
    2.1413   -2.0663    0.0000 C   0  0
    2.5103   -2.7557    0.0000 C   0  0
    2.9228   -2.0412    0.0000 C   0  0
    1.9053   -0.5525    0.0000 H   0  0
  1  2  2  0
  2  3  1  0
  2 19  1  0
  3  4  1  0
  3 22  1  0
  4  5  2  0
  5  6  1  0
  6  7  2  0
  7  8  1  0
  8  9  2  0
  9 10  1  0
  9 14  1  0
 10 11  2  0
 11  6  1  0
 11 12  1  0
 12 13  2  0
 13  4  1  0
 14 15  1  0
 15 16  1  0
 16 17  1  0
 17 18  1  0
 18 14  1  0
 19 20  1  0
 20 21  1  0
 21 19  1  0
M  END
> <CMPD_CHEMBLID>
CHEMBL3685029

> <STANDARD_TYPE>
Ki

> <RELATION>
=

> <STANDARD_VALUE>
2

> <STANDARD_UNITS>
nM

> <Molecular_Weight>
280.3642

$$$$

  SciTegic11272012012D

 26 29  0  0  0  0            999 V2000
    2.1456    0.2461    0.0000 C   0  0
    2.1445   -0.4139    0.0000 C   0  0
    2.8583   -0.8275    0.0000 C   0  0
    2.8570   -1.6525    0.0000 C   0  0
    2.1419   -2.0639    0.0000 C   0  0
    2.1408   -2.7239    0.0000 F   0  0
    1.4281   -1.6502    0.0000 C   0  0
    1.4293   -0.8252    0.0000 C   0  0
    0.7145   -0.4125    0.0000 C   0  0
    0.7145    0.4125    0.0000 C   0  0
    0.0000    0.8250    0.0000 C   0  0
   -0.7145    0.4125    0.0000 C   0  0
   -1.4290    0.8250    0.0000 C   0  0
   -1.4290    1.4850    0.0000 Cl  0  0
   -2.1434    0.4125    0.0000 C   0  0
   -2.8592    0.8237    0.0000 N   0  0
   -3.5735    0.4100    0.0000 C   0  0
   -3.5723   -0.2500    0.0000 O   0  0
   -4.2892    0.8213    0.0000 C   0  0
   -5.0706    0.7961    0.0000 C   0  0
   -4.6581    1.5106    0.0000 C   0  0
   -2.1434   -0.4125    0.0000 N   0  0
   -1.4290   -0.8250    0.0000 C   0  0
   -0.7145   -0.4125    0.0000 C   0  0
    0.0000   -0.8250    0.0000 C   0  0
   -2.8601    1.3738    0.0000 H   0  0
  1  2  1  0
  2  3  2  0
  3  4  1  0
  4  5  2  0
  5  6  1  0
  5  7  1  0
  7  8  2  0
  8  2  1  0
  8  9  1  0
  9 10  2  0
 10 11  1  0
 11 12  2  0
 12 13  1  0
 13 14  1  0
 13 15  2  0
 15 16  1  0
 15 22  1  0
 16 17  1  0
 16 26  1  0
 17 18  2  0
 17 19  1  0
 19 20  1  0
 20 21  1  0
 21 19  1  0
 22 23  2  0
 23 24  1  0
 24 12  1  0
 24 25  2  0
 25  9  1  0
M  END
> <CMPD_CHEMBLID>
CHEMBL3685100

> <STANDARD_TYPE>
Ki

> <RELATION>
=

> <STANDARD_VALUE>
2

> <STANDARD_UNITS>
nM

> <Molecular_Weight>
354.80524

$$$$

  SciTegic11272012012D

 27 31  0  0  0  0            999 V2000
    1.4302   -0.8238    0.0000 N   0  0
    0.7145   -0.4125    0.0000 C   0  0
    0.7145    0.4125    0.0000 N   0  0
    0.0000    0.8250    0.0000 C   0  0
   -0.7145    0.4125    0.0000 N   0  0
   -0.7145   -0.4125    0.0000 C   0  0
    0.0000   -0.8250    0.0000 C   0  0
   -0.1713   -1.6316    0.0000 C   0  0
   -0.9918   -1.7178    0.0000 N   0  0
   -1.3273   -0.9642    0.0000 N   0  0
   -2.1348   -0.7925    0.0000 C   0  0
   -2.7754   -1.2969    0.0000 C   0  0
   -3.4553   -0.8297    0.0000 C   0  0
   -3.2211   -0.0386    0.0000 C   0  0
   -2.3964   -0.0169    0.0000 C   0  0
    0.3811   -2.2450    0.0000 C   0  0
    1.1959   -2.1345    0.0000 C   0  0
    1.7002   -2.7874    0.0000 N   0  0
    1.3870   -3.5506    0.0000 C   0  0
    1.7446   -4.2937    0.0000 N   0  0
    1.1480   -4.8635    0.0000 C   0  0
    0.4216   -4.4722    0.0000 C   0  0
    0.5694   -3.6610    0.0000 C   0  0
    0.0651   -3.0081    0.0000 C   0  0
    2.2857   -4.3921    0.0000 H   0  0
    1.9062   -0.5481    0.0000 H   0  0
    1.4312   -1.3738    0.0000 H   0  0
  1  2  1  0
  1 26  1  0
  1 27  1  0
  2  3  2  0
  3  4  1  0
  4  5  2  0
  5  6  1  0
  6  7  2  0
  7  2  1  0
  7  8  1  0
  8  9  2  0
  8 16  1  0
  9 10  1  0
 10  6  1  0
 10 11  1  0
 11 12  1  0
 12 13  1  0
 13 14  1  0
 14 15  1  0
 15 11  1  0
 16 17  2  0
 17 18  1  0
 18 19  2  0
 19 20  1  0
 20 21  1  0
 20 25  1  0
 21 22  2  0
 22 23  1  0
 23 19  1  0
 23 24  2  0
 24 16  1  0
M  END
> <CMPD_CHEMBLID>
CHEMBL1081312

> <STANDARD_TYPE>
IC50

> <RELATION>
=

> <STANDARD_VALUE>
2

> <STANDARD_UNITS>
nM

> <Molecular_Weight>
319.36378

$$$$

  SciTegic11272012012D

 26 29  0  0  0  0            999 V2000
    1.4227   -3.2999    0.0000 O   0  0
    2.1388   -2.8893    0.0000 C   0  0
    2.1419   -2.0639    0.0000 C   0  0
    2.8570   -1.6525    0.0000 C   0  0
    2.8583   -0.8275    0.0000 C   0  0
    2.1445   -0.4139    0.0000 C   0  0
    1.4293   -0.8252    0.0000 C   0  0
    1.4281   -1.6502    0.0000 C   0  0
    0.7144   -0.4125    0.0000 C   0  0
    0.7144    0.4125    0.0000 C   0  0
    0.0000    0.8250    0.0000 C   0  0
   -0.7144    0.4125    0.0000 C   0  0
   -1.4290    0.8250    0.0000 C   0  0
   -2.1434    0.4125    0.0000 C   0  0
   -2.8591    0.8237    0.0000 N   0  0
   -3.5734    0.4100    0.0000 C   0  0
   -3.5722   -0.2500    0.0000 O   0  0
   -4.2891    0.8213    0.0000 C   0  0
   -5.0706    0.7961    0.0000 C   0  0
   -4.6581    1.5106    0.0000 C   0  0
   -2.1434   -0.4125    0.0000 N   0  0
   -1.4290   -0.8250    0.0000 C   0  0
   -0.7144   -0.4125    0.0000 C   0  0
    0.0000   -0.8250    0.0000 C   0  0
   -2.8601    1.3737    0.0000 H   0  0
    1.4208   -3.8499    0.0000 H   0  0
  1  2  1  0
  1 26  1  0
  2  3  1  0
  3  4  2  0
  4  5  1  0
  5  6  2  0
  6  7  1  0
  7  8  2  0
  7  9  1  0
  8  3  1  0
  9 10  2  0
 10 11  1  0
 11 12  2  0
 12 13  1  0
 13 14  2  0
 14 15  1  0
 14 21  1  0
 15 16  1  0
 15 25  1  0
 16 17  2  0
 16 18  1  0
 18 19  1  0
 19 20  1  0
 20 18  1  0
 21 22  2  0
 22 23  1  0
 23 12  1  0
 23 24  2  0
 24  9  1  0
M  END
> <CMPD_CHEMBLID>
CHEMBL3685161

> <STANDARD_TYPE>
Ki

> <RELATION>
=

> <STANDARD_VALUE>
2

> <STANDARD_UNITS>
nM

> <Molecular_Weight>
318.36912

$$$$

  SciTegic11272012012D

 23 25  0  0  0  0            999 V2000
    0.8552   -1.9812    0.0000 C   0  0
    1.4273   -1.6522    0.0000 C   0  0
    2.1414   -2.0664    0.0000 C   0  0
    2.1402   -2.8919    0.0000 O   0  0
    1.4285   -0.8267    0.0000 O   0  0
    0.7145   -0.4125    0.0000 C   0  0
    0.7145    0.4125    0.0000 C   0  0
    0.0000    0.8250    0.0000 C   0  0
   -0.7145    0.4125    0.0000 C   0  0
   -1.4290    0.8250    0.0000 C   0  0
   -2.1435    0.4125    0.0000 C   0  0
   -2.8592    0.8238    0.0000 N   0  0
   -3.5735    0.4100    0.0000 C   0  0
   -3.5723   -0.2500    0.0000 O   0  0
   -4.2892    0.8213    0.0000 C   0  0
   -5.0707    0.7961    0.0000 C   0  0
   -4.6582    1.5106    0.0000 C   0  0
   -2.1435   -0.4125    0.0000 N   0  0
   -1.4290   -0.8250    0.0000 C   0  0
   -0.7145   -0.4125    0.0000 C   0  0
    0.0000   -0.8250    0.0000 C   0  0
   -2.8602    1.3738    0.0000 H   0  0
    2.6160   -3.1678    0.0000 H   0  0
  1  2  1  0
  2  3  1  0
  2  5  1  0
  3  4  1  0
  4 23  1  0
  5  6  1  0
  6  7  2  0
  7  8  1  0
  8  9  2  0
  9 10  1  0
 10 11  2  0
 11 12  1  0
 11 18  1  0
 12 13  1  0
 12 22  1  0
 13 14  2  0
 13 15  1  0
 15 16  1  0
 16 17  1  0
 17 15  1  0
 18 19  2  0
 19 20  1  0
 20  9  1  0
 20 21  2  0
 21  6  1  0
M  END
> <CMPD_CHEMBLID>
CHEMBL3685158

> <STANDARD_TYPE>
Ki

> <RELATION>
=

> <STANDARD_VALUE>
2

> <STANDARD_UNITS>
nM

> <Molecular_Weight>
286.32572

$$$$

  SciTegic11272012012D

 46 50  0  0  0  0            999 V2000
    1.2860   -0.7425    0.0000 C   0  0
    0.7144   -0.4125    0.0000 N   0  0
    0.7144    0.4125    0.0000 C   0  0
    0.0000    0.8250    0.0000 C   0  0
   -0.7144    0.4125    0.0000 N   0  0
   -0.7144   -0.4125    0.0000 C   0  0
    0.0000   -0.8250    0.0000 C   0  0
   -1.4293    0.8252    0.0000 C   0  0
   -1.4306    1.6502    0.0000 C   0  0
   -2.1458    2.0616    0.0000 C   0  0
   -2.8596    1.6479    0.0000 C   0  0
   -3.5759    2.0581    0.0000 N   0  0
   -4.2896    1.6432    0.0000 C   0  0
   -5.0061    2.0520    0.0000 N   0  0
   -5.7185    1.6359    0.0000 C   0  0
   -5.7143    0.8110    0.0000 C   0  0
   -6.4262    0.3931    0.0000 N   0  0
   -6.4209   -0.4323    0.0000 C   0  0
   -5.8471   -0.7584    0.0000 O   0  0
   -7.1328   -0.8501    0.0000 C   0  0
   -7.8494   -0.4412    0.0000 C   0  0
   -8.5617   -0.8573    0.0000 C   0  0
   -9.2795   -0.4497    0.0000 N   0  0
   -9.9917   -0.8671    0.0000 C   0  0
   -9.9872   -1.5271    0.0000 O   0  0
  -10.7095   -0.4595    0.0000 C   0  0
  -11.4219   -0.8756    0.0000 C   0  0
  -12.1384   -0.4667    0.0000 C   0  0
  -12.1426    0.3583    0.0000 C   0  0
  -11.4303    0.7744    0.0000 C   0  0
  -10.7137    0.3655    0.0000 C   0  0
  -11.4345    1.5998    0.0000 C   0  0
  -12.0075    1.9272    0.0000 F   0  0
  -10.8645    1.9326    0.0000 F   0  0
  -11.4375    2.2598    0.0000 F   0  0
   -8.5576   -1.6823    0.0000 C   0  0
   -7.8410   -2.0912    0.0000 C   0  0
   -7.1286   -1.6751    0.0000 C   0  0
   -6.5554   -2.0022    0.0000 C   0  0
   -4.9978    0.4020    0.0000 C   0  0
   -4.2854    0.8182    0.0000 N   0  0
   -2.8583    0.8230    0.0000 C   0  0
   -2.1432    0.4116    0.0000 C   0  0
   -9.2833    0.1003    0.0000 H   0  0
   -6.9044    0.6649    0.0000 H   0  0
   -3.5778    2.6081    0.0000 H   0  0
  1  2  1  0
  2  3  1  0
  3  4  1  0
  4  5  1  0
  5  6  1  0
  5  8  1  0
  6  7  1  0
  7  2  1  0
  8  9  2  0
  9 10  1  0
 10 11  2  0
 11 12  1  0
 11 42  1  0
 12 13  1  0
 12 46  1  0
 13 14  2  0
 14 15  1  0
 15 16  2  0
 16 17  1  0
 16 40  1  0
 17 18  1  0
 17 45  1  0
 18 19  2  0
 18 20  1  0
 20 21  2  0
 21 22  1  0
 22 23  1  0
 22 36  2  0
 23 24  1  0
 23 44  1  0
 24 25  2  0
 24 26  1  0
 26 27  2  0
 27 28  1  0
 28 29  2  0
 29 30  1  0
 30 31  2  0
 30 32  1  0
 31 26  1  0
 32 33  1  0
 32 34  1  0
 32 35  1  0
 36 37  1  0
 37 38  2  0
 38 20  1  0
 38 39  1  0
 40 41  2  0
 41 13  1  0
 42 43  2  0
 43  8  1  0
M  END
> <CMPD_CHEMBLID>
CHEMBL272888

> <STANDARD_TYPE>
IC50

> <RELATION>
=

> <STANDARD_VALUE>
2

> <STANDARD_UNITS>
nM

> <Molecular_Weight>
589.61081

$$$$

  SciTegic11272012012D

 30 33  0  0  0  0            999 V2000
    4.8571   -2.9719    0.0000 C   0  0
    4.2860   -3.3026    0.0000 C   0  0
    3.5703   -2.8914    0.0000 N   0  0
    2.8558   -3.3038    0.0000 C   0  0
    2.1414   -2.8913    0.0000 C   0  0
    2.1413   -2.0663    0.0000 C   0  0
    2.8559   -1.6539    0.0000 C   0  0
    3.5703   -2.0664    0.0000 C   0  0
    1.4273   -1.6521    0.0000 C   0  0
    0.8551   -1.9812    0.0000 O   0  0
    1.4285   -0.8267    0.0000 N   0  0
    0.7144   -0.4125    0.0000 C   0  0
    0.7144    0.4125    0.0000 C   0  0
    0.0000    0.8250    0.0000 C   0  0
    0.0000    1.6500    0.0000 C   0  0
   -0.7145    2.0625    0.0000 C   0  0
   -1.4290    1.6500    0.0000 C   0  0
   -1.4290    0.8250    0.0000 C   0  0
   -0.7144    0.4125    0.0000 C   0  0
   -0.7144   -0.4125    0.0000 C   0  0
    0.0000   -0.8250    0.0000 N   0  0
   -2.1438    2.0627    0.0000 C   0  0
   -2.8576    1.6491    0.0000 C   0  0
   -3.5728    2.0605    0.0000 C   0  0
   -4.1438    1.7295    0.0000 F   0  0
   -3.5741    2.8855    0.0000 C   0  0
   -2.8603    3.2991    0.0000 C   0  0
   -2.1452    2.8877    0.0000 C   0  0
   -1.5741    3.2187    0.0000 C   0  0
    1.9053   -0.5525    0.0000 H   0  0
  1  2  1  0
  2  3  1  0
  3  4  1  0
  4  5  1  0
  5  6  1  0
  6  7  1  0
  6  9  1  0
  7  8  1  0
  8  3  1  0
  9 10  2  0
  9 11  1  0
 11 12  1  0
 11 30  1  0
 12 13  2  0
 13 14  1  0
 14 15  2  0
 15 16  1  0
 16 17  2  0
 17 18  1  0
 17 22  1  0
 18 19  2  0
 19 14  1  0
 19 20  1  0
 20 21  2  0
 21 12  1  0
 22 23  2  0
 23 24  1  0
 24 25  1  0
 24 26  2  0
 26 27  1  0
 27 28  2  0
 28 22  1  0
 28 29  1  0
M  END
> <CMPD_CHEMBLID>
CHEMBL3685113

> <STANDARD_TYPE>
Ki

> <RELATION>
=

> <STANDARD_VALUE>
2

> <STANDARD_UNITS>
nM

> <Molecular_Weight>
391.48114

$$$$

  SciTegic11272012012D

 28 31  0  0  0  0            999 V2000
    4.1419   -3.2214    0.0000 C   0  0
    3.5703   -2.8914    0.0000 N   0  0
    2.8558   -3.3038    0.0000 C   0  0
    2.1414   -2.8913    0.0000 C   0  0
    2.1413   -2.0663    0.0000 C   0  0
    2.8559   -1.6539    0.0000 C   0  0
    3.5703   -2.0664    0.0000 C   0  0
    1.4273   -1.6521    0.0000 C   0  0
    0.8551   -1.9812    0.0000 O   0  0
    1.4285   -0.8267    0.0000 N   0  0
    0.7144   -0.4125    0.0000 C   0  0
    0.7144    0.4125    0.0000 C   0  0
    0.0000    0.8250    0.0000 C   0  0
    0.0000    1.6500    0.0000 C   0  0
   -0.7145    2.0625    0.0000 C   0  0
   -1.4290    1.6500    0.0000 C   0  0
   -1.4290    0.8250    0.0000 C   0  0
   -0.7144    0.4125    0.0000 C   0  0
   -0.7144   -0.4125    0.0000 C   0  0
    0.0000   -0.8250    0.0000 N   0  0
   -2.1438    2.0627    0.0000 C   0  0
   -2.8576    1.6491    0.0000 C   0  0
   -3.5728    2.0605    0.0000 N   0  0
   -3.5741    2.8855    0.0000 C   0  0
   -2.8603    3.2991    0.0000 C   0  0
   -2.1452    2.8877    0.0000 C   0  0
   -1.5741    3.2187    0.0000 C   0  0
    1.9053   -0.5525    0.0000 H   0  0
  1  2  1  0
  2  3  1  0
  3  4  1  0
  4  5  1  0
  5  6  1  0
  5  8  1  0
  6  7  1  0
  7  2  1  0
  8  9  2  0
  8 10  1  0
 10 11  1  0
 10 28  1  0
 11 12  2  0
 12 13  1  0
 13 14  2  0
 14 15  1  0
 15 16  2  0
 16 17  1  0
 16 21  1  0
 17 18  2  0
 18 13  1  0
 18 19  1  0
 19 20  2  0
 20 11  1  0
 21 22  2  0
 22 23  1  0
 23 24  2  0
 24 25  1  0
 25 26  2  0
 26 21  1  0
 26 27  1  0
M  END
> <CMPD_CHEMBLID>
CHEMBL3685114

> <STANDARD_TYPE>
Ki

> <RELATION>
=

> <STANDARD_VALUE>
2

> <STANDARD_UNITS>
nM

> <Molecular_Weight>
360.45216

$$$$

  SciTegic11272012012D

 36 40  0  0  0  0            999 V2000
    2.1455    0.2461    0.0000 C   0  0
    2.1445   -0.4139    0.0000 C   0  0
    2.8583   -0.8275    0.0000 C   0  0
    2.8570   -1.6525    0.0000 C   0  0
    2.1419   -2.0639    0.0000 C   0  0
    2.1388   -2.8893    0.0000 N   0  0
    1.4227   -3.2999    0.0000 C   0  0
    0.8523   -2.9680    0.0000 O   0  0
    1.4198   -4.1253    0.0000 N   0  0
    0.7046   -4.5367    0.0000 C   0  0
    0.7033   -5.3617    0.0000 C   0  0
    1.4171   -5.7754    0.0000 S   0  0
    0.8374   -6.0909    0.0000 O   0  0
    1.9958   -6.0928    0.0000 O   0  0
    2.1322   -5.3640    0.0000 C   0  0
    2.1336   -4.5390    0.0000 C   0  0
    1.4281   -1.6502    0.0000 C   0  0
    1.4293   -0.8252    0.0000 C   0  0
    0.7144   -0.4125    0.0000 C   0  0
    0.7144    0.4125    0.0000 C   0  0
    0.0000    0.8250    0.0000 C   0  0
   -0.7144    0.4125    0.0000 C   0  0
   -1.4290    0.8250    0.0000 C   0  0
   -2.1434    0.4125    0.0000 C   0  0
   -2.8591    0.8237    0.0000 N   0  0
   -3.5734    0.4100    0.0000 C   0  0
   -3.5722   -0.2500    0.0000 O   0  0
   -4.2891    0.8213    0.0000 C   0  0
   -5.0706    0.7961    0.0000 C   0  0
   -4.6581    1.5106    0.0000 C   0  0
   -2.1434   -0.4125    0.0000 N   0  0
   -1.4290   -0.8250    0.0000 C   0  0
   -0.7144   -0.4125    0.0000 C   0  0
    0.0000   -0.8250    0.0000 C   0  0
   -2.8601    1.3737    0.0000 H   0  0
    2.6143   -3.1659    0.0000 H   0  0
  1  2  1  0
  2  3  2  0
  3  4  1  0
  4  5  2  0
  5  6  1  0
  5 17  1  0
  6  7  1  0
  6 36  1  0
  7  8  2  0
  7  9  1  0
  9 10  1  0
 10 11  1  0
 11 12  1  0
 12 13  2  0
 12 14  2  0
 12 15  1  0
 15 16  1  0
 16  9  1  0
 17 18  2  0
 18  2  1  0
 18 19  1  0
 19 20  2  0
 20 21  1  0
 21 22  2  0
 22 23  1  0
 23 24  2  0
 24 25  1  0
 24 31  1  0
 25 26  1  0
 25 35  1  0
 26 27  2  0
 26 28  1  0
 28 29  1  0
 29 30  1  0
 30 28  1  0
 31 32  2  0
 32 33  1  0
 33 22  1  0
 33 34  2  0
 34 19  1  0
M  END
> <CMPD_CHEMBLID>
CHEMBL3689601

> <STANDARD_TYPE>
Ki

> <RELATION>
=

> <STANDARD_VALUE>
2

> <STANDARD_UNITS>
nM

> <Molecular_Weight>
478.56334

$$$$

  SciTegic11272012012D

 31 34  0  0  0  0            999 V2000
    0.7013   -5.1959    0.0000 C   0  0
    0.7037   -4.5359    0.0000 O   0  0
    1.4198   -4.1254    0.0000 C   0  0
    1.4227   -3.2999    0.0000 C   0  0
    0.8523   -2.9680    0.0000 O   0  0
    2.1389   -2.8893    0.0000 N   0  0
    2.1419   -2.0639    0.0000 C   0  0
    2.8570   -1.6525    0.0000 C   0  0
    2.8583   -0.8275    0.0000 C   0  0
    2.1445   -0.4139    0.0000 C   0  0
    2.1456    0.2461    0.0000 C   0  0
    1.4293   -0.8252    0.0000 C   0  0
    1.4281   -1.6502    0.0000 C   0  0
    0.7145   -0.4125    0.0000 C   0  0
    0.7145    0.4125    0.0000 C   0  0
    0.0000    0.8250    0.0000 C   0  0
   -0.7145    0.4125    0.0000 C   0  0
   -1.4290    0.8250    0.0000 C   0  0
   -2.1434    0.4125    0.0000 C   0  0
   -2.8591    0.8237    0.0000 N   0  0
   -3.5734    0.4100    0.0000 C   0  0
   -3.5723   -0.2500    0.0000 O   0  0
   -4.2891    0.8213    0.0000 C   0  0
   -5.0706    0.7961    0.0000 C   0  0
   -4.6581    1.5106    0.0000 C   0  0
   -2.1434   -0.4125    0.0000 N   0  0
   -1.4290   -0.8250    0.0000 C   0  0
   -0.7145   -0.4125    0.0000 C   0  0
    0.0000   -0.8250    0.0000 C   0  0
   -2.8601    1.3737    0.0000 H   0  0
    2.6143   -3.1659    0.0000 H   0  0
  1  2  1  0
  2  3  1  0
  3  4  1  0
  4  5  2  0
  4  6  1  0
  6  7  1  0
  6 31  1  0
  7  8  2  0
  8  9  1  0
  9 10  2  0
 10 11  1  0
 10 12  1  0
 12 13  2  0
 12 14  1  0
 13  7  1  0
 14 15  2  0
 15 16  1  0
 16 17  2  0
 17 18  1  0
 18 19  2  0
 19 20  1  0
 19 26  1  0
 20 21  1  0
 20 30  1  0
 21 22  2  0
 21 23  1  0
 23 24  1  0
 24 25  1  0
 25 23  1  0
 26 27  2  0
 27 28  1  0
 28 17  1  0
 28 29  2  0
 29 14  1  0
M  END
> <CMPD_CHEMBLID>
CHEMBL3689585

> <STANDARD_TYPE>
Ki

> <RELATION>
=

> <STANDARD_VALUE>
2

> <STANDARD_UNITS>
nM

> <Molecular_Weight>
389.44702

$$$$

  SciTegic11272012012D

 32 36  0  0  0  0            999 V2000
    2.1455    0.2461    0.0000 C   0  0
    2.1445   -0.4139    0.0000 C   0  0
    2.8583   -0.8275    0.0000 C   0  0
    2.8570   -1.6525    0.0000 C   0  0
    2.1419   -2.0639    0.0000 C   0  0
    2.1408   -2.7239    0.0000 F   0  0
    1.4281   -1.6502    0.0000 C   0  0
    1.4293   -0.8252    0.0000 C   0  0
    0.7144   -0.4125    0.0000 C   0  0
    0.7144    0.4125    0.0000 C   0  0
    0.0000    0.8250    0.0000 C   0  0
    0.0000    1.6500    0.0000 C   0  0
   -0.7145    2.0625    0.0000 N   0  0
   -1.4290    1.6500    0.0000 C   0  0
   -2.1447    2.0612    0.0000 N   0  0
   -2.8590    1.6475    0.0000 C   0  0
   -2.8578    0.9875    0.0000 O   0  0
   -3.5747    2.0588    0.0000 C   0  0
   -4.3561    2.0337    0.0000 C   0  0
   -3.9436    2.7481    0.0000 C   0  0
   -1.4290    0.8250    0.0000 C   0  0
   -0.7144    0.4125    0.0000 C   0  0
   -0.7144   -0.4125    0.0000 C   0  0
   -1.4285   -0.8267    0.0000 O   0  0
   -1.4273   -1.6521    0.0000 C   0  0
   -2.0931   -2.1274    0.0000 C   0  0
   -1.8354   -2.9111    0.0000 C   0  0
   -1.0104   -2.9082    0.0000 N   0  0
   -0.7582   -2.1227    0.0000 C   0  0
    0.0000   -0.8250    0.0000 N   0  0
   -0.6856   -3.3521    0.0000 H   0  0
   -2.1457    2.6112    0.0000 H   0  0
  1  2  1  0
  2  3  2  0
  3  4  1  0
  4  5  2  0
  5  6  1  0
  5  7  1  0
  7  8  2  0
  8  2  1  0
  8  9  1  0
  9 10  2  0
 10 11  1  0
 11 12  2  0
 12 13  1  0
 13 14  2  0
 14 15  1  0
 14 21  1  0
 15 16  1  0
 15 32  1  0
 16 17  2  0
 16 18  1  0
 18 19  1  0
 19 20  1  0
 20 18  1  0
 21 22  2  0
 22 11  1  0
 22 23  1  0
 23 24  1  0
 23 30  2  0
 24 25  1  0
 25 26  1  0
 26 27  1  0
 27 28  1  0
 28 29  1  0
 28 31  1  0
 29 25  1  0
 30  9  1  0
M  END
> <CMPD_CHEMBLID>
CHEMBL3689675

> <STANDARD_TYPE>
Ki

> <RELATION>
=

> <STANDARD_VALUE>
2

> <STANDARD_UNITS>
nM

> <Molecular_Weight>
406.45272

$$$$

  SciTegic11272012012D

 25 28  0  0  0  0            999 V2000
    2.7201    0.7399    0.0000 C   0  0
    2.1475    0.4116    0.0000 O   0  0
    2.1445   -0.4139    0.0000 C   0  0
    2.8583   -0.8275    0.0000 C   0  0
    2.8570   -1.6525    0.0000 C   0  0
    2.1419   -2.0639    0.0000 N   0  0
    1.4281   -1.6502    0.0000 C   0  0
    1.4293   -0.8252    0.0000 C   0  0
    0.7145   -0.4125    0.0000 C   0  0
    0.7145    0.4125    0.0000 C   0  0
    0.0000    0.8250    0.0000 C   0  0
   -0.7145    0.4125    0.0000 C   0  0
   -1.4290    0.8250    0.0000 C   0  0
   -2.1434    0.4125    0.0000 C   0  0
   -2.8591    0.8237    0.0000 N   0  0
   -3.5734    0.4100    0.0000 C   0  0
   -3.5723   -0.2500    0.0000 O   0  0
   -4.2891    0.8213    0.0000 C   0  0
   -5.0706    0.7961    0.0000 C   0  0
   -4.6581    1.5106    0.0000 C   0  0
   -2.1434   -0.4125    0.0000 N   0  0
   -1.4290   -0.8250    0.0000 C   0  0
   -0.7145   -0.4125    0.0000 C   0  0
    0.0000   -0.8250    0.0000 C   0  0
   -2.8601    1.3737    0.0000 H   0  0
  1  2  1  0
  2  3  1  0
  3  4  2  0
  4  5  1  0
  5  6  2  0
  6  7  1  0
  7  8  2  0
  8  3  1  0
  8  9  1  0
  9 10  2  0
 10 11  1  0
 11 12  2  0
 12 13  1  0
 13 14  2  0
 14 15  1  0
 14 21  1  0
 15 16  1  0
 15 25  1  0
 16 17  2  0
 16 18  1  0
 18 19  1  0
 19 20  1  0
 20 18  1  0
 21 22  2  0
 22 23  1  0
 23 12  1  0
 23 24  2  0
 24  9  1  0
M  END
> <CMPD_CHEMBLID>
CHEMBL3689598

> <STANDARD_TYPE>
Ki

> <RELATION>
=

> <STANDARD_VALUE>
2

> <STANDARD_UNITS>
nM

> <Molecular_Weight>
319.35718

$$$$

  SciTegic11272012012D

 32 35  0  0  0  0            999 V2000
    0.7013   -5.1960    0.0000 C   0  0
    0.7037   -4.5360    0.0000 O   0  0
    1.4198   -4.1254    0.0000 C   0  0
    1.9903   -4.4573    0.0000 C   0  0
    1.4228   -3.2999    0.0000 C   0  0
    0.8523   -2.9681    0.0000 O   0  0
    2.1389   -2.8894    0.0000 N   0  0
    2.1419   -2.0639    0.0000 C   0  0
    2.8570   -1.6525    0.0000 C   0  0
    2.8583   -0.8275    0.0000 C   0  0
    2.1445   -0.4139    0.0000 C   0  0
    2.1456    0.2461    0.0000 C   0  0
    1.4293   -0.8252    0.0000 C   0  0
    1.4281   -1.6502    0.0000 C   0  0
    0.7145   -0.4125    0.0000 C   0  0
    0.7145    0.4125    0.0000 C   0  0
    0.0000    0.8250    0.0000 C   0  0
   -0.7145    0.4125    0.0000 C   0  0
   -1.4290    0.8250    0.0000 C   0  0
   -2.1434    0.4125    0.0000 C   0  0
   -2.8592    0.8237    0.0000 N   0  0
   -3.5735    0.4100    0.0000 C   0  0
   -3.5723   -0.2500    0.0000 O   0  0
   -4.2892    0.8213    0.0000 C   0  0
   -5.0706    0.7961    0.0000 C   0  0
   -4.6581    1.5106    0.0000 C   0  0
   -2.1434   -0.4125    0.0000 N   0  0
   -1.4290   -0.8250    0.0000 C   0  0
   -0.7145   -0.4125    0.0000 C   0  0
    0.0000   -0.8250    0.0000 C   0  0
   -2.8601    1.3738    0.0000 H   0  0
    2.6143   -3.1660    0.0000 H   0  0
  1  2  1  0
  2  3  1  0
  3  4  1  0
  3  5  1  0
  5  6  2  0
  5  7  1  0
  7  8  1  0
  7 32  1  0
  8  9  2  0
  9 10  1  0
 10 11  2  0
 11 12  1  0
 11 13  1  0
 13 14  2  0
 13 15  1  0
 14  8  1  0
 15 16  2  0
 16 17  1  0
 17 18  2  0
 18 19  1  0
 19 20  2  0
 20 21  1  0
 20 27  1  0
 21 22  1  0
 21 31  1  0
 22 23  2  0
 22 24  1  0
 24 25  1  0
 25 26  1  0
 26 24  1  0
 27 28  2  0
 28 29  1  0
 29 18  1  0
 29 30  2  0
 30 15  1  0
M  END
> <CMPD_CHEMBLID>
CHEMBL3689587

> <STANDARD_TYPE>
Ki

> <RELATION>
=

> <STANDARD_VALUE>
2

> <STANDARD_UNITS>
nM

> <Molecular_Weight>
403.4736

$$$$

  SciTegic11272012012D

 36 40  0  0  0  0            999 V2000
    1.2861   -0.7425    0.0000 C   0  0
    0.7144   -0.4125    0.0000 C   0  0
    0.7144    0.4125    0.0000 C   0  0
    0.0000    0.8250    0.0000 C   0  0
   -0.7144    0.4125    0.0000 C   0  0
   -0.7144   -0.4125    0.0000 C   0  0
   -1.4290   -0.8250    0.0000 N   0  0
   -1.4290   -1.6500    0.0000 N   0  0
   -0.7144   -2.0625    0.0000 C   0  0
   -0.7127   -2.8879    0.0000 N   0  0
    0.0027   -3.2997    0.0000 C   0  0
    0.0056   -4.1247    0.0000 C   0  0
    0.7215   -4.5347    0.0000 C   0  0
    1.4345   -4.1197    0.0000 C   0  0
    2.1517   -4.5285    0.0000 O   0  0
    2.8645   -4.1123    0.0000 C   0  0
    3.5817   -4.5211    0.0000 C   0  0
    4.2945   -4.1049    0.0000 N   0  3
    4.8678   -4.4318    0.0000 O   0  5
    3.6248   -3.6583    0.0000 C   0  0
    3.8757   -2.8724    0.0000 C   0  0
    4.7007   -2.8682    0.0000 C   0  0
    4.9596   -3.6516    0.0000 C   0  0
    1.4317   -3.2947    0.0000 C   0  0
    0.7158   -2.8847    0.0000 C   0  0
    0.0000   -1.6500    0.0000 N   0  0
    0.0000   -0.8250    0.0000 C   0  0
    0.0000    1.6504    0.0000 C   0  0
    0.7138    2.0641    0.0000 C   0  0
    1.2859    1.7350    0.0000 Cl  0  0
    0.7125    2.8891    0.0000 C   0  0
   -0.0026    3.3005    0.0000 C   0  0
   -0.7164    2.8868    0.0000 C   0  0
   -0.7151    2.0618    0.0000 C   0  0
   -1.2862    1.7310    0.0000 Cl  0  0
   -1.1886   -3.1638    0.0000 H   0  0
  1  2  1  0
  2  3  2  0
  3  4  1  0
  4  5  2  0
  4 28  1  0
  5  6  1  0
  6  7  2  0
  7  8  1  0
  8  9  2  0
  9 10  1  0
  9 26  1  0
 10 11  1  0
 10 36  1  0
 11 12  2  0
 12 13  1  0
 13 14  2  0
 14 15  1  0
 14 24  1  0
 15 16  1  0
 16 17  1  0
 17 18  1  0
 18 19  1  0
 18 20  1  0
 20 21  1  0
 21 22  1  0
 22 23  1  0
 23 18  1  0
 24 25  2  0
 25 11  1  0
 26 27  2  0
 27  2  1  0
 27  6  1  0
 28 29  2  0
 29 30  1  0
 29 31  1  0
 31 32  2  0
 32 33  1  0
 33 34  2  0
 34 28  1  0
 34 35  1  0
M  CHG  2  18   1  19  -1
M  END
> <CMPD_CHEMBLID>
CHEMBL256101

> <STANDARD_TYPE>
Ki

> <RELATION>
=

> <STANDARD_VALUE>
2.04

> <STANDARD_UNITS>
nM

> <Molecular_Weight>
510.415

$$$$

  SciTegic11272012012D

 47 52  0  0  0  0            999 V2000
    7.8485    4.3779    0.0000 C   0  0
    7.8508    3.7179    0.0000 N   0  0
    8.5667    3.3079    0.0000 C   0  0
    8.5696    2.4829    0.0000 C   0  0
    7.8566    2.0679    0.0000 N   0  0
    7.8578    1.2424    0.0000 C   0  0
    7.1438    0.8282    0.0000 C   0  0
    6.4293    1.2407    0.0000 C   0  0
    5.7149    0.8282    0.0000 C   0  0
    5.7148    0.0032    0.0000 C   0  0
    5.0008   -0.4110    0.0000 N   0  0
    5.0020   -1.2364    0.0000 C   0  0
    5.5742   -1.5655    0.0000 O   0  0
    4.2880   -1.6507    0.0000 C   0  0
    4.2880   -2.4756    0.0000 C   0  0
    3.5735   -2.8881    0.0000 C   0  0
    2.8590   -2.4756    0.0000 C   0  0
    2.2875   -2.8056    0.0000 C   0  0
    2.8590   -1.6507    0.0000 C   0  0
    3.5735   -1.2382    0.0000 C   0  0
    2.1442   -1.2379    0.0000 C   0  0
    1.4293   -0.8252    0.0000 C   0  0
    0.7144   -0.4125    0.0000 C   0  0
    0.7144    0.4125    0.0000 C   0  0
    0.0000    0.8250    0.0000 N   0  0
   -0.7144    0.4125    0.0000 C   0  0
   -1.4986    0.6674    0.0000 N   0  0
   -1.9836    0.0000    0.0000 N   0  0
   -1.4986   -0.6674    0.0000 C   0  0
   -1.7536   -1.4525    0.0000 C   0  0
   -2.5429   -1.6831    0.0000 C   0  0
   -2.7379   -2.4847    0.0000 C   0  0
   -2.1413   -3.0545    0.0000 C   0  0
   -1.3495   -2.8226    0.0000 C   0  0
   -1.1544   -2.0210    0.0000 C   0  0
   -0.7144   -0.4125    0.0000 C   0  0
    0.0000   -0.8250    0.0000 C   0  0
    6.4294   -0.4093    0.0000 C   0  0
    7.1438    0.0032    0.0000 C   0  0
    7.8587   -0.4095    0.0000 C   0  0
    7.8591   -1.0695    0.0000 F   0  0
    8.4301   -0.0793    0.0000 F   0  0
    8.4304   -0.7392    0.0000 F   0  0
    7.1407    2.4780    0.0000 C   0  0
    7.1378    3.3030    0.0000 C   0  0
   -1.6685    1.1905    0.0000 H   0  0
    4.5241   -0.1368    0.0000 H   0  0
  1  2  1  0
  2  3  1  0
  3  4  1  0
  4  5  1  0
  5  6  1  0
  5 44  1  0
  6  7  1  0
  7  8  2  0
  8  9  1  0
  9 10  2  0
 10 11  1  0
 10 38  1  0
 11 12  1  0
 11 47  1  0
 12 13  2  0
 12 14  1  0
 14 15  2  0
 15 16  1  0
 16 17  2  0
 17 18  1  0
 17 19  1  0
 19 20  2  0
 19 21  1  0
 20 14  1  0
 21 22  3  0
 22 23  1  0
 23 24  2  0
 24 25  1  0
 25 26  2  0
 26 27  1  0
 27 28  1  0
 27 46  1  0
 28 29  2  0
 29 30  1  0
 29 36  1  0
 30 31  2  0
 31 32  1  0
 32 33  2  0
 33 34  1  0
 34 35  2  0
 35 30  1  0
 36 26  1  0
 36 37  2  0
 37 23  1  0
 38 39  2  0
 39  7  1  0
 39 40  1  0
 40 41  1  0
 40 42  1  0
 40 43  1  0
 44 45  1  0
 45  2  1  0
M  END
> <CMPD_CHEMBLID>
CHEMBL2316871

> <STANDARD_TYPE>
IC50

> <RELATION>
=

> <STANDARD_VALUE>
2.06

> <STANDARD_UNITS>
nM

> <Molecular_Weight>
608.65545

$$$$

  SciTegic11272012012D

 30 33  0  0  0  0            999 V2000
    2.1456    0.2461    0.0000 C   0  0
    2.1446   -0.4139    0.0000 C   0  0
    2.8584   -0.8275    0.0000 C   0  0
    2.8570   -1.6525    0.0000 C   0  0
    2.1419   -2.0639    0.0000 N   0  0
    1.4281   -1.6503    0.0000 C   0  0
    1.4293   -0.8252    0.0000 C   0  0
    0.7145   -0.4125    0.0000 C   0  0
    0.7145    0.4125    0.0000 C   0  0
    0.0000    0.8250    0.0000 C   0  0
   -0.7145    0.4125    0.0000 C   0  0
   -1.4290    0.8250    0.0000 C   0  0
   -2.1435    0.4125    0.0000 C   0  0
   -2.8592    0.8238    0.0000 N   0  0
   -3.5735    0.4100    0.0000 C   0  0
   -3.5723   -0.2500    0.0000 O   0  0
   -4.2892    0.8213    0.0000 C   0  0
   -4.6582    1.5106    0.0000 C   0  0
   -5.0707    0.7961    0.0000 C   0  0
   -5.6369    0.4571    0.0000 F   0  0
   -2.1435   -0.4125    0.0000 N   0  0
   -1.4290   -0.8250    0.0000 C   0  0
   -0.7145   -0.4125    0.0000 C   0  0
    0.0000   -0.8250    0.0000 C   0  0
    3.5713   -2.0664    0.0000 C   0  0
    3.5700   -2.7264    0.0000 C   0  0
    4.1422   -2.3976    0.0000 C   0  0
    4.2871   -1.6553    0.0000 O   0  0
    4.7629   -1.9310    0.0000 H   0  0
   -2.8602    1.3738    0.0000 H   0  0
  1  2  1  0
  2  3  2  0
  3  4  1  0
  4  5  2  0
  4 25  1  0
  5  6  1  0
  6  7  2  0
  7  2  1  0
  7  8  1  0
  8  9  2  0
  9 10  1  0
 10 11  2  0
 11 12  1  0
 12 13  2  0
 13 14  1  0
 13 21  1  0
 14 15  1  0
 14 30  1  0
 15 16  2  0
 15 17  1  0
 17 18  1  0
 18 19  1  0
 19 17  1  0
 19 20  1  0
 21 22  2  0
 22 23  1  0
 23 11  1  0
 23 24  2  0
 24  8  1  0
 25 26  1  0
 25 27  1  0
 25 28  1  0
 28 29  1  0
M  END
> <CMPD_CHEMBLID>
CHEMBL3689739

> <STANDARD_TYPE>
Ki

> <RELATION>
=

> <STANDARD_VALUE>
2.08

> <STANDARD_UNITS>
nM

> <Molecular_Weight>
379.42738

$$$$

  SciTegic11272012012D

 43 48  0  0  0  0            999 V2000
    7.8486    4.3779    0.0000 C   0  0
    7.8509    3.7179    0.0000 N   0  0
    8.5668    3.3079    0.0000 C   0  0
    8.5697    2.4829    0.0000 C   0  0
    7.8566    2.0679    0.0000 N   0  0
    7.8578    1.2424    0.0000 C   0  0
    7.1438    0.8282    0.0000 C   0  0
    6.4293    1.2407    0.0000 C   0  0
    5.7149    0.8282    0.0000 C   0  0
    5.7148    0.0032    0.0000 C   0  0
    5.0008   -0.4110    0.0000 N   0  0
    5.0020   -1.2365    0.0000 C   0  0
    5.5742   -1.5655    0.0000 O   0  0
    4.2880   -1.6507    0.0000 C   0  0
    4.2880   -2.4757    0.0000 C   0  0
    3.5735   -2.8882    0.0000 C   0  0
    2.8591   -2.4757    0.0000 C   0  0
    2.1442   -2.8884    0.0000 C   0  0
    1.3627   -2.8645    0.0000 C   0  0
    1.7764   -3.5783    0.0000 C   0  0
    2.8591   -1.6507    0.0000 C   0  0
    3.5735   -1.2382    0.0000 C   0  0
    2.1442   -1.2379    0.0000 C   0  0
    1.4293   -0.8252    0.0000 C   0  0
    0.7144   -0.4125    0.0000 C   0  0
    0.7144    0.4125    0.0000 C   0  0
    0.0000    0.8250    0.0000 N   0  0
   -0.7144    0.4125    0.0000 C   0  0
   -1.4986    0.6674    0.0000 N   0  0
   -1.9836    0.0000    0.0000 N   0  0
   -1.4986   -0.6674    0.0000 C   0  0
   -0.7144   -0.4125    0.0000 C   0  0
    0.0000   -0.8250    0.0000 C   0  0
    6.4294   -0.4093    0.0000 C   0  0
    7.1438    0.0032    0.0000 C   0  0
    7.8587   -0.4095    0.0000 C   0  0
    7.8592   -1.0695    0.0000 F   0  0
    8.4302   -0.0793    0.0000 F   0  0
    8.4305   -0.7392    0.0000 F   0  0
    7.1407    2.4780    0.0000 C   0  0
    7.1378    3.3030    0.0000 C   0  0
   -1.6685    1.1905    0.0000 H   0  0
    4.5241   -0.1368    0.0000 H   0  0
  1  2  1  0
  2  3  1  0
  3  4  1  0
  4  5  1  0
  5  6  1  0
  5 40  1  0
  6  7  1  0
  7  8  2  0
  8  9  1  0
  9 10  2  0
 10 11  1  0
 10 34  1  0
 11 12  1  0
 11 43  1  0
 12 13  2  0
 12 14  1  0
 14 15  2  0
 15 16  1  0
 16 17  2  0
 17 18  1  0
 17 21  1  0
 18 19  1  0
 19 20  1  0
 20 18  1  0
 21 22  2  0
 21 23  1  0
 22 14  1  0
 23 24  3  0
 24 25  1  0
 25 26  2  0
 26 27  1  0
 27 28  2  0
 28 29  1  0
 29 30  1  0
 29 42  1  0
 30 31  2  0
 31 32  1  0
 32 28  1  0
 32 33  2  0
 33 25  1  0
 34 35  2  0
 35  7  1  0
 35 36  1  0
 36 37  1  0
 36 38  1  0
 36 39  1  0
 40 41  1  0
 41  2  1  0
M  END
> <CMPD_CHEMBLID>
CHEMBL2316585

> <STANDARD_TYPE>
IC50

> <RELATION>
=

> <STANDARD_VALUE>
2.16

> <STANDARD_UNITS>
nM

> <Molecular_Weight>
558.59677

$$$$

  SciTegic11272012012D

 41 46  0  0  0  0            999 V2000
   -2.0519   -3.8375    0.0000 C   0  0
   -1.5745   -3.3817    0.0000 N   0  0
   -0.7828   -3.6135    0.0000 C   0  0
   -0.1861   -3.0438    0.0000 C   0  0
   -0.3810   -2.2449    0.0000 N   0  0
   -1.1730   -2.0103    0.0000 C   0  0
   -1.7696   -2.5800    0.0000 C   0  0
    0.1713   -1.6316    0.0000 C   0  0
    0.9918   -1.7178    0.0000 C   0  0
    1.3273   -0.9641    0.0000 C   0  0
    0.7144   -0.4125    0.0000 C   0  0
    0.7144    0.4125    0.0000 C   0  0
    0.0000    0.8250    0.0000 C   0  0
   -0.7144    0.4125    0.0000 C   0  0
   -0.7144   -0.4125    0.0000 C   0  0
    0.0000   -0.8250    0.0000 C   0  0
   -0.0017    1.6504    0.0000 C   0  0
    0.5693    1.9814    0.0000 O   0  0
   -0.7171    2.0622    0.0000 N   0  0
   -0.7188    2.8876    0.0000 C   0  0
   -1.4334    3.3002    0.0000 C   0  0
   -1.4334    4.1252    0.0000 C   0  0
   -0.7189    4.5377    0.0000 C   0  0
   -0.7189    5.1977    0.0000 C   0  0
   -0.0044    4.1252    0.0000 C   0  0
    0.7113    4.5365    0.0000 N   0  0
    1.4256    4.1227    0.0000 C   0  0
    2.1415    4.5328    0.0000 N   0  0
    2.8546    4.1178    0.0000 C   0  0
    2.8517    3.2928    0.0000 C   0  0
    2.1358    2.8828    0.0000 C   0  0
    1.4228    3.2977    0.0000 N   0  0
    2.1330    2.0573    0.0000 C   0  0
    2.8454    1.6412    0.0000 C   0  0
    2.8412    0.8162    0.0000 C   0  0
    2.1248    0.4073    0.0000 C   0  0
    1.4123    0.8234    0.0000 N   0  0
    1.4165    1.6484    0.0000 C   0  0
   -0.0044    3.3002    0.0000 C   0  0
    0.7122    5.0865    0.0000 H   0  0
   -1.1930    1.7863    0.0000 H   0  0
  1  2  1  0
  2  3  1  0
  3  4  1  0
  4  5  1  0
  5  6  1  0
  5  8  1  0
  6  7  1  0
  7  2  1  0
  8  9  1  0
  9 10  1  0
 10 11  1  0
 11 12  2  0
 12 13  1  0
 13 14  2  0
 13 17  1  0
 14 15  1  0
 15 16  2  0
 16  8  1  0
 16 11  1  0
 17 18  2  0
 17 19  1  0
 19 20  1  0
 19 41  1  0
 20 21  2  0
 21 22  1  0
 22 23  2  0
 23 24  1  0
 23 25  1  0
 25 26  1  0
 25 39  2  0
 26 27  1  0
 26 40  1  0
 27 28  2  0
 28 29  1  0
 29 30  2  0
 30 31  1  0
 31 32  2  0
 31 33  1  0
 32 27  1  0
 33 34  2  0
 34 35  1  0
 35 36  2  0
 36 37  1  0
 37 38  2  0
 38 33  1  0
 39 20  1  0
M  END
> <CMPD_CHEMBLID>
CHEMBL3690082

> <STANDARD_TYPE>
IC50

> <RELATION>
=

> <STANDARD_VALUE>
2.2

> <STANDARD_UNITS>
nM

> <Molecular_Weight>
519.64002

$$$$

  SciTegic11272012012D

 40 44  0  0  0  0            999 V2000
   -2.4959   -2.6711    0.0000 C   0  0
   -2.2921   -3.2988    0.0000 C   0  0
   -2.8442   -3.9118    0.0000 C   0  0
   -2.5895   -4.6964    0.0000 C   0  0
   -1.7825   -4.8682    0.0000 C   0  0
   -1.2304   -4.2551    0.0000 C   0  0
   -1.4851   -3.4705    0.0000 C   0  0
   -0.9327   -2.8571    0.0000 C   0  0
   -0.3802   -2.2438    0.0000 C   0  0
    0.1713   -1.6316    0.0000 C   0  0
    0.9918   -1.7178    0.0000 C   0  0
    1.3273   -0.9641    0.0000 N   0  0
    0.7144   -0.4125    0.0000 C   0  0
    0.7144    0.4125    0.0000 C   0  0
    1.4285    0.8267    0.0000 N   0  0
    0.0000    0.8250    0.0000 C   0  0
   -0.7144    0.4125    0.0000 C   0  0
   -0.7144   -0.4125    0.0000 C   0  0
    0.0000   -0.8250    0.0000 N   0  0
   -1.5260   -5.6527    0.0000 C   0  0
   -1.9668   -6.1439    0.0000 O   0  0
   -0.7184   -5.8233    0.0000 N   0  0
   -0.4618   -6.6079    0.0000 C   0  0
    0.3452   -6.7796    0.0000 C   0  0
    0.5999   -7.5643    0.0000 C   0  0
    0.0478   -8.1773    0.0000 C   0  0
   -0.7591   -8.0056    0.0000 C   0  0
   -1.0139   -7.2210    0.0000 C   0  0
   -1.3116   -8.6190    0.0000 C   0  0
   -1.1081   -9.2468    0.0000 F   0  0
   -1.9571   -8.4814    0.0000 F   0  0
   -1.7535   -9.1092    0.0000 F   0  0
    1.4073   -7.7361    0.0000 N   0  0
    2.0096   -7.1826    0.0000 C   0  0
    2.7234   -7.5964    0.0000 C   0  0
    2.5504   -8.4030    0.0000 N   0  0
    1.7298   -8.4878    0.0000 C   0  0
   -0.3510   -5.4140    0.0000 H   0  0
    1.4277    1.3767    0.0000 H   0  0
    1.9053    0.5525    0.0000 H   0  0
  1  2  1  0
  2  3  2  0
  3  4  1  0
  4  5  2  0
  5  6  1  0
  5 20  1  0
  6  7  2  0
  7  2  1  0
  7  8  1  0
  8  9  3  0
  9 10  1  0
 10 11  2  0
 11 12  1  0
 12 13  2  0
 13 14  1  0
 14 15  1  0
 14 16  2  0
 15 39  1  0
 15 40  1  0
 16 17  1  0
 17 18  2  0
 18 19  1  0
 19 10  1  0
 19 13  1  0
 20 21  2  0
 20 22  1  0
 22 23  1  0
 22 38  1  0
 23 24  2  0
 24 25  1  0
 25 26  2  0
 25 33  1  0
 26 27  1  0
 27 28  2  0
 27 29  1  0
 28 23  1  0
 29 30  1  0
 29 31  1  0
 29 32  1  0
 33 34  1  0
 34 35  2  0
 35 36  1  0
 36 37  2  0
 37 33  1  0
M  END
> <CMPD_CHEMBLID>
CHEMBL1172397

> <STANDARD_TYPE>
IC50

> <RELATION>
=

> <STANDARD_VALUE>
2.3

> <STANDARD_UNITS>
nM

> <Molecular_Weight>
500.47457

$$$$

  SciTegic11272012012D

 40 44  0  0  0  0            999 V2000
   -8.0924    0.7225    0.0000 C   0  0
   -7.8908    0.0941    0.0000 N   0  0
   -8.4451   -0.5169    0.0000 C   0  0
   -8.1930   -1.3025    0.0000 C   0  0
   -7.3867   -1.4771    0.0000 N   0  0
   -7.1329   -2.2625    0.0000 C   0  0
   -6.3259   -2.4360    0.0000 C   0  0
   -5.7738   -1.8230    0.0000 C   0  0
   -4.9668   -1.9947    0.0000 C   0  0
   -4.7120   -2.7794    0.0000 C   0  0
   -3.9050   -2.9528    0.0000 N   0  0
   -3.6512   -3.7383    0.0000 C   0  0
   -4.0938   -4.2279    0.0000 O   0  0
   -2.8442   -3.9117    0.0000 C   0  0
   -2.5894   -4.6964    0.0000 C   0  0
   -1.7825   -4.8681    0.0000 C   0  0
   -1.2303   -4.2551    0.0000 C   0  0
   -0.5848   -4.3925    0.0000 C   0  0
   -1.4851   -3.4705    0.0000 C   0  0
   -2.2920   -3.2988    0.0000 C   0  0
   -0.9327   -2.8571    0.0000 C   0  0
   -0.3802   -2.2438    0.0000 C   0  0
    0.1713   -1.6316    0.0000 C   0  0
    0.9917   -1.7178    0.0000 C   0  0
    1.3273   -0.9641    0.0000 N   0  0
    0.7144   -0.4125    0.0000 C   0  0
    0.7144    0.4125    0.0000 C   0  0
    0.0000    0.8250    0.0000 N   0  0
   -0.7144    0.4125    0.0000 C   0  0
   -0.7144   -0.4125    0.0000 C   0  0
    0.0000   -0.8250    0.0000 N   0  0
   -5.2643   -3.3924    0.0000 C   0  0
   -6.0712   -3.2207    0.0000 C   0  0
   -6.6236   -3.8339    0.0000 C   0  0
   -6.4202   -4.4618    0.0000 F   0  0
   -7.2692   -3.6964    0.0000 F   0  0
   -7.0656   -4.3241    0.0000 F   0  0
   -6.8325   -0.8660    0.0000 C   0  0
   -7.0845   -0.0804    0.0000 C   0  0
   -3.5362   -2.5448    0.0000 H   0  0
  1  2  1  0
  2  3  1  0
  3  4  1  0
  4  5  1  0
  5  6  1  0
  5 38  1  0
  6  7  1  0
  7  8  2  0
  8  9  1  0
  9 10  2  0
 10 11  1  0
 10 32  1  0
 11 12  1  0
 11 40  1  0
 12 13  2  0
 12 14  1  0
 14 15  2  0
 15 16  1  0
 16 17  2  0
 17 18  1  0
 17 19  1  0
 19 20  2  0
 19 21  1  0
 20 14  1  0
 21 22  3  0
 22 23  1  0
 23 24  2  0
 24 25  1  0
 25 26  2  0
 26 27  1  0
 27 28  2  0
 28 29  1  0
 29 30  2  0
 30 31  1  0
 31 23  1  0
 31 26  1  0
 32 33  2  0
 33  7  1  0
 33 34  1  0
 34 35  1  0
 34 36  1  0
 34 37  1  0
 38 39  1  0
 39  2  1  0
M  END
> <CMPD_CHEMBLID>
CHEMBL1171836

> <STANDARD_TYPE>
IC50

> <RELATION>
=

> <STANDARD_VALUE>
2.3

> <STANDARD_UNITS>
nM

> <Molecular_Weight>
532.55949

$$$$

  SciTegic11272012012D

 37 40  0  0  0  0            999 V2000
    1.2861   -0.7425    0.0000 C   0  0
    0.7144   -0.4125    0.0000 N   0  0
    0.7144    0.4125    0.0000 C   0  0
    1.2861    0.7425    0.0000 O   0  0
    0.0000    0.8250    0.0000 C   0  0
   -0.7144    0.4125    0.0000 C   0  0
   -0.7144   -0.4125    0.0000 C   0  0
   -1.4290   -0.8250    0.0000 C   0  0
   -1.4290   -1.6500    0.0000 N   0  0
   -0.7144   -2.0625    0.0000 C   0  0
   -0.7127   -2.8879    0.0000 N   0  0
    0.0027   -3.2997    0.0000 C   0  0
    0.0056   -4.1247    0.0000 C   0  0
    0.7215   -4.5347    0.0000 C   0  0
    1.4345   -4.1197    0.0000 C   0  0
    2.1517   -4.5285    0.0000 N   0  0
    2.8645   -4.1123    0.0000 C   0  0
    3.5817   -4.5210    0.0000 C   0  0
    3.5876   -5.3465    0.0000 O   0  0
    4.2944   -4.1049    0.0000 C   0  0
    5.0116   -4.5136    0.0000 O   0  0
    1.4316   -3.2947    0.0000 C   0  0
    0.7158   -2.8847    0.0000 C   0  0
    0.0000   -1.6500    0.0000 N   0  0
    0.0000   -0.8250    0.0000 C   0  0
    0.0000    1.6504    0.0000 C   0  0
    0.7138    2.0641    0.0000 C   0  0
    1.2859    1.7350    0.0000 Cl  0  0
    0.7125    2.8891    0.0000 C   0  0
   -0.0026    3.3005    0.0000 C   0  0
   -0.7164    2.8868    0.0000 C   0  0
   -0.7151    2.0618    0.0000 C   0  0
   -1.2862    1.7310    0.0000 Cl  0  0
    5.4866   -4.2363    0.0000 H   0  0
    4.0658   -5.6184    0.0000 H   0  0
    2.1545   -5.0785    0.0000 H   0  0
   -1.1886   -3.1638    0.0000 H   0  0
  1  2  1  0
  2  3  1  0
  3  4  2  0
  3  5  1  0
  5  6  2  0
  5 26  1  0
  6  7  1  0
  7  8  2  0
  8  9  1  0
  9 10  2  0
 10 11  1  0
 10 24  1  0
 11 12  1  0
 11 37  1  0
 12 13  2  0
 13 14  1  0
 14 15  2  0
 15 16  1  0
 15 22  1  0
 16 17  1  0
 16 36  1  0
 17 18  1  0
 18 19  1  0
 18 20  1  0
 19 35  1  0
 20 21  1  0
 21 34  1  0
 22 23  2  0
 23 12  1  0
 24 25  2  0
 25  2  1  0
 25  7  1  0
 26 27  2  0
 27 28  1  0
 27 29  1  0
 29 30  2  0
 30 31  1  0
 31 32  2  0
 32 26  1  0
 32 33  1  0
M  END
> <CMPD_CHEMBLID>
CHEMBL567068

> <STANDARD_TYPE>
IC50

> <RELATION>
=

> <STANDARD_VALUE>
2.3

> <STANDARD_UNITS>
nM

> <Molecular_Weight>
486.35054

$$$$

  SciTegic11272012012D

 31 34  0  0  0  0            999 V2000
    1.2861   -0.7425    0.0000 C   0  0
    0.7144   -0.4125    0.0000 N   0  0
    0.7144    0.4125    0.0000 C   0  0
    1.2861    0.7425    0.0000 O   0  0
    0.0000    0.8250    0.0000 C   0  0
   -0.7144    0.4125    0.0000 C   0  0
   -0.7144   -0.4125    0.0000 C   0  0
   -1.4290   -0.8250    0.0000 C   0  0
   -1.4290   -1.6500    0.0000 N   0  0
   -0.7144   -2.0625    0.0000 C   0  0
   -0.7127   -2.8879    0.0000 N   0  0
    0.0027   -3.2997    0.0000 C   0  0
    0.0056   -4.1247    0.0000 C   0  0
    0.7215   -4.5347    0.0000 C   0  0
    1.4345   -4.1197    0.0000 C   0  0
    2.1517   -4.5285    0.0000 N   0  0
    1.4317   -3.2947    0.0000 C   0  0
    0.7158   -2.8847    0.0000 C   0  0
    0.0000   -1.6500    0.0000 N   0  0
    0.0000   -0.8250    0.0000 C   0  0
    0.0000    1.6504    0.0000 C   0  0
    0.7138    2.0641    0.0000 C   0  0
    1.2859    1.7350    0.0000 Cl  0  0
    0.7125    2.8891    0.0000 C   0  0
   -0.0026    3.3005    0.0000 C   0  0
   -0.7164    2.8868    0.0000 C   0  0
   -0.7151    2.0618    0.0000 C   0  0
   -1.2862    1.7310    0.0000 Cl  0  0
    2.6266   -4.2512    0.0000 H   0  0
    2.1545   -5.0785    0.0000 H   0  0
   -1.1886   -3.1638    0.0000 H   0  0
  1  2  1  0
  2  3  1  0
  3  4  2  0
  3  5  1  0
  5  6  2  0
  5 21  1  0
  6  7  1  0
  7  8  2  0
  8  9  1  0
  9 10  2  0
 10 11  1  0
 10 19  1  0
 11 12  1  0
 11 31  1  0
 12 13  2  0
 13 14  1  0
 14 15  2  0
 15 16  1  0
 15 17  1  0
 16 29  1  0
 16 30  1  0
 17 18  2  0
 18 12  1  0
 19 20  2  0
 20  2  1  0
 20  7  1  0
 21 22  2  0
 22 23  1  0
 22 24  1  0
 24 25  2  0
 25 26  1  0
 26 27  2  0
 27 21  1  0
 27 28  1  0
M  END
> <CMPD_CHEMBLID>
CHEMBL566636

> <STANDARD_TYPE>
IC50

> <RELATION>
=

> <STANDARD_VALUE>
2.3

> <STANDARD_UNITS>
nM

> <Molecular_Weight>
412.272

$$$$

  SciTegic11272012012D

 40 44  0  0  0  0            999 V2000
   -2.4959   -2.6711    0.0000 C   0  0
   -2.2921   -3.2988    0.0000 C   0  0
   -2.8442   -3.9117    0.0000 C   0  0
   -2.5894   -4.6964    0.0000 C   0  0
   -1.7825   -4.8681    0.0000 C   0  0
   -1.2303   -4.2551    0.0000 C   0  0
   -1.4851   -3.4705    0.0000 C   0  0
   -0.9327   -2.8571    0.0000 C   0  0
   -0.3802   -2.2438    0.0000 C   0  0
    0.1713   -1.6316    0.0000 C   0  0
    0.9918   -1.7178    0.0000 C   0  0
    1.3273   -0.9641    0.0000 N   0  0
    0.7144   -0.4125    0.0000 C   0  0
    0.7144    0.4125    0.0000 C   0  0
    0.0000    0.8250    0.0000 C   0  0
   -0.7144    0.4125    0.0000 C   0  0
   -0.7144   -0.4125    0.0000 N   0  0
    0.0000   -0.8250    0.0000 N   0  0
   -1.5260   -5.6527    0.0000 C   0  0
   -1.9668   -6.1438    0.0000 O   0  0
   -0.7184   -5.8233    0.0000 N   0  0
   -0.4618   -6.6079    0.0000 C   0  0
    0.3452   -6.7796    0.0000 C   0  0
    0.5999   -7.5643    0.0000 C   0  0
    0.0478   -8.1772    0.0000 C   0  0
    0.3044   -8.9618    0.0000 C   0  0
    1.1120   -9.1325    0.0000 N   0  0
    1.3695   -9.9162    0.0000 C   0  0
    2.1771  -10.0851    0.0000 C   0  0
    2.7271   -9.4702    0.0000 N   0  0
    2.4696   -8.6864    0.0000 C   0  0
    1.6621   -8.5175    0.0000 C   0  0
   -0.7591   -8.0056    0.0000 C   0  0
   -1.0139   -7.2210    0.0000 C   0  0
   -1.3116   -8.6189    0.0000 C   0  0
   -1.1081   -9.2468    0.0000 F   0  0
   -1.9571   -8.4814    0.0000 F   0  0
   -1.7535   -9.1091    0.0000 F   0  0
    3.2654   -9.5828    0.0000 H   0  0
   -0.3510   -5.4140    0.0000 H   0  0
  1  2  1  0
  2  3  2  0
  3  4  1  0
  4  5  2  0
  5  6  1  0
  5 19  1  0
  6  7  2  0
  7  2  1  0
  7  8  1  0
  8  9  3  0
  9 10  1  0
 10 11  2  0
 11 12  1  0
 12 13  2  0
 13 14  1  0
 14 15  2  0
 15 16  1  0
 16 17  2  0
 17 18  1  0
 18 10  1  0
 18 13  1  0
 19 20  2  0
 19 21  1  0
 21 22  1  0
 21 40  1  0
 22 23  2  0
 23 24  1  0
 24 25  2  0
 25 26  1  0
 25 33  1  0
 26 27  1  0
 27 28  1  0
 28 29  1  0
 29 30  1  0
 30 31  1  0
 30 39  1  0
 31 32  1  0
 32 27  1  0
 33 34  2  0
 33 35  1  0
 34 22  1  0
 35 36  1  0
 35 37  1  0
 35 38  1  0
M  END
> <CMPD_CHEMBLID>
CHEMBL1173352

> <STANDARD_TYPE>
IC50

> <RELATION>
=

> <STANDARD_VALUE>
2.3

> <STANDARD_UNITS>
nM

> <Molecular_Weight>
518.53291

$$$$

  SciTegic11272012012D

 33 37  0  0  0  0            999 V2000
    4.2815    1.4952    0.0000 C   0  0
    4.2840    0.8352    0.0000 P   0  0
    4.8569    0.5075    0.0000 O   0  0
    4.8543    1.1674    0.0000 C   0  0
    3.5706    0.4200    0.0000 C   0  0
    3.5734   -0.4050    0.0000 C   0  0
    2.8604   -0.8200    0.0000 C   0  0
    2.1444   -0.4100    0.0000 C   0  0
    1.4302   -0.8237    0.0000 N   0  0
    0.7144   -0.4125    0.0000 C   0  0
    0.7144    0.4125    0.0000 N   0  0
    0.0000    0.8250    0.0000 C   0  0
   -0.7144    0.4125    0.0000 N   0  0
   -0.7144   -0.4125    0.0000 C   0  0
    0.0000   -0.8250    0.0000 C   0  0
   -0.1713   -1.6316    0.0000 N   0  0
   -0.9918   -1.7178    0.0000 C   0  0
   -1.3273   -0.9641    0.0000 N   0  0
   -2.1337   -0.7943    0.0000 C   0  0
   -2.6852   -1.4084    0.0000 C   0  0
   -3.4930   -1.2383    0.0000 C   0  0
   -3.7478   -0.4536    0.0000 C   0  0
   -4.5548   -0.2820    0.0000 C   0  0
   -5.1069   -0.8950    0.0000 C   0  0
   -4.8521   -1.6797    0.0000 C   0  0
   -5.2646   -2.3936    0.0000 N   0  0
   -4.7126   -3.0068    0.0000 N   0  0
   -3.9589   -2.6713    0.0000 C   0  0
   -4.0452   -1.8513    0.0000 C   0  0
    2.1416    0.4150    0.0000 C   0  0
    2.8546    0.8300    0.0000 C   0  0
   -5.8116   -2.4509    0.0000 H   0  0
    1.4311   -1.3737    0.0000 H   0  0
  1  2  1  0
  2  3  2  0
  2  4  1  0
  2  5  1  0
  5  6  2  0
  6  7  1  0
  7  8  2  0
  8  9  1  0
  8 30  1  0
  9 10  1  0
  9 33  1  0
 10 11  2  0
 11 12  1  0
 12 13  2  0
 13 14  1  0
 14 15  2  0
 15 10  1  0
 15 16  1  0
 16 17  2  0
 17 18  1  0
 18 14  1  0
 18 19  1  0
 19 20  2  0
 20 21  1  0
 21 22  2  0
 22 23  1  0
 23 24  2  0
 24 25  1  0
 25 26  1  0
 26 27  1  0
 26 32  1  0
 27 28  2  0
 28 29  1  0
 29 21  1  0
 29 25  2  0
 30 31  2  0
 31  5  1  0
M  END
> <CMPD_CHEMBLID>
CHEMBL452563

> <STANDARD_TYPE>
IC50

> <RELATION>
=

> <STANDARD_VALUE>
2.36

> <STANDARD_UNITS>
nM

> <Molecular_Weight>
429.41426

$$$$

  SciTegic11272012012D

 37 41  0  0  0  0            999 V2000
   -8.0925    0.7225    0.0000 C   0  0
   -7.8909    0.0941    0.0000 N   0  0
   -8.4451   -0.5169    0.0000 C   0  0
   -8.1931   -1.3025    0.0000 C   0  0
   -7.3868   -1.4771    0.0000 N   0  0
   -7.1330   -2.2625    0.0000 C   0  0
   -6.3260   -2.4360    0.0000 C   0  0
   -5.7738   -1.8230    0.0000 C   0  0
   -4.9669   -1.9947    0.0000 C   0  0
   -4.7120   -2.7794    0.0000 C   0  0
   -3.9050   -2.9528    0.0000 N   0  0
   -3.6512   -3.7383    0.0000 C   0  0
   -4.0938   -4.2279    0.0000 O   0  0
   -2.8442   -3.9117    0.0000 C   0  0
   -2.5894   -4.6964    0.0000 C   0  0
   -1.7825   -4.8681    0.0000 C   0  0
   -1.2303   -4.2551    0.0000 C   0  0
   -0.5848   -4.3925    0.0000 C   0  0
   -1.4851   -3.4705    0.0000 C   0  0
   -2.2921   -3.2988    0.0000 C   0  0
   -0.9327   -2.8571    0.0000 C   0  0
   -0.3802   -2.2438    0.0000 C   0  0
    0.1713   -1.6316    0.0000 C   0  0
    0.9918   -1.7178    0.0000 C   0  0
    1.3273   -0.9641    0.0000 N   0  0
    0.7144   -0.4125    0.0000 C   0  0
    0.7144    0.4125    0.0000 C   0  0
    0.0000    0.8250    0.0000 C   0  0
   -0.7144    0.4125    0.0000 C   0  0
   -0.7144   -0.4125    0.0000 N   0  0
    0.0000   -0.8250    0.0000 N   0  0
   -5.2643   -3.3924    0.0000 C   0  0
   -6.0712   -3.2207    0.0000 C   0  0
   -6.5130   -3.7110    0.0000 Cl  0  0
   -6.8325   -0.8660    0.0000 C   0  0
   -7.0846   -0.0804    0.0000 C   0  0
   -3.5362   -2.5448    0.0000 H   0  0
  1  2  1  0
  2  3  1  0
  3  4  1  0
  4  5  1  0
  5  6  1  0
  5 35  1  0
  6  7  1  0
  7  8  2  0
  8  9  1  0
  9 10  2  0
 10 11  1  0
 10 32  1  0
 11 12  1  0
 11 37  1  0
 12 13  2  0
 12 14  1  0
 14 15  2  0
 15 16  1  0
 16 17  2  0
 17 18  1  0
 17 19  1  0
 19 20  2  0
 19 21  1  0
 20 14  1  0
 21 22  3  0
 22 23  1  0
 23 24  2  0
 24 25  1  0
 25 26  2  0
 26 27  1  0
 27 28  2  0
 28 29  1  0
 29 30  2  0
 30 31  1  0
 31 23  1  0
 31 26  1  0
 32 33  2  0
 33  7  1  0
 33 34  1  0
 35 36  1  0
 36  2  1  0
M  END
> <CMPD_CHEMBLID>
CHEMBL1172718

> <STANDARD_TYPE>
IC50

> <RELATION>
=

> <STANDARD_VALUE>
2.4

> <STANDARD_UNITS>
nM

> <Molecular_Weight>
499.00658

$$$$

  SciTegic11272012012D

 41 46  0  0  0  0            999 V2000
   -2.0519   -3.8375    0.0000 C   0  0
   -1.5745   -3.3817    0.0000 N   0  0
   -0.7828   -3.6135    0.0000 C   0  0
   -0.1861   -3.0438    0.0000 C   0  0
   -0.3810   -2.2449    0.0000 N   0  0
   -1.1730   -2.0103    0.0000 C   0  0
   -1.7696   -2.5800    0.0000 C   0  0
    0.1713   -1.6316    0.0000 C   0  0
    0.9918   -1.7178    0.0000 C   0  0
    1.3273   -0.9641    0.0000 C   0  0
    0.7144   -0.4125    0.0000 C   0  0
    0.7144    0.4125    0.0000 C   0  0
    0.0000    0.8250    0.0000 C   0  0
   -0.7144    0.4125    0.0000 C   0  0
   -0.7144   -0.4125    0.0000 C   0  0
    0.0000   -0.8250    0.0000 C   0  0
   -0.0017    1.6504    0.0000 C   0  0
    0.5693    1.9814    0.0000 O   0  0
   -0.7171    2.0622    0.0000 N   0  0
   -0.7188    2.8876    0.0000 C   0  0
   -1.4334    3.3002    0.0000 C   0  0
   -1.4334    4.1252    0.0000 C   0  0
   -0.7189    4.5377    0.0000 C   0  0
   -0.7189    5.1977    0.0000 C   0  0
   -0.0044    4.1252    0.0000 C   0  0
    0.7113    4.5365    0.0000 N   0  0
    1.4256    4.1227    0.0000 C   0  0
    2.1415    4.5328    0.0000 N   0  0
    2.8546    4.1178    0.0000 C   0  0
    2.8517    3.2928    0.0000 C   0  0
    2.1358    2.8828    0.0000 C   0  0
    1.4228    3.2977    0.0000 N   0  0
    2.1330    2.0573    0.0000 C   0  0
    2.8454    1.6412    0.0000 C   0  0
    2.8412    0.8162    0.0000 N   0  0
    2.1248    0.4073    0.0000 C   0  0
    1.4123    0.8234    0.0000 N   0  0
    1.4165    1.6484    0.0000 C   0  0
   -0.0044    3.3002    0.0000 C   0  0
    0.7122    5.0865    0.0000 H   0  0
   -1.1930    1.7863    0.0000 H   0  0
  1  2  1  0
  2  3  1  0
  3  4  1  0
  4  5  1  0
  5  6  1  0
  5  8  1  0
  6  7  1  0
  7  2  1  0
  8  9  1  0
  9 10  1  0
 10 11  1  0
 11 12  2  0
 12 13  1  0
 13 14  2  0
 13 17  1  0
 14 15  1  0
 15 16  2  0
 16  8  1  0
 16 11  1  0
 17 18  2  0
 17 19  1  0
 19 20  1  0
 19 41  1  0
 20 21  2  0
 21 22  1  0
 22 23  2  0
 23 24  1  0
 23 25  1  0
 25 26  1  0
 25 39  2  0
 26 27  1  0
 26 40  1  0
 27 28  2  0
 28 29  1  0
 29 30  2  0
 30 31  1  0
 31 32  2  0
 31 33  1  0
 32 27  1  0
 33 34  2  0
 34 35  1  0
 35 36  2  0
 36 37  1  0
 37 38  2  0
 38 33  1  0
 39 20  1  0
M  END
> <CMPD_CHEMBLID>
CHEMBL3690079

> <STANDARD_TYPE>
IC50

> <RELATION>
=

> <STANDARD_VALUE>
2.4

> <STANDARD_UNITS>
nM

> <Molecular_Weight>
520.62808

$$$$

  SciTegic11272012012D

 33 37  0  0  0  0            999 V2000
   -2.0140   -4.4424    0.0000 C   0  0
   -1.4408   -4.1153    0.0000 N   0  0
   -0.7284   -4.5314    0.0000 C   0  0
   -0.0119   -4.1225    0.0000 C   0  0
   -0.0077   -3.2975    0.0000 N   0  0
   -0.7201   -2.8814    0.0000 C   0  0
   -1.4367   -3.2903    0.0000 C   0  0
    0.7086   -2.8872    0.0000 C   0  0
    1.4216   -3.3022    0.0000 N   0  0
    2.1375   -2.8922    0.0000 C   0  0
    2.1403   -2.0672    0.0000 C   0  0
    1.4273   -1.6521    0.0000 C   0  0
    1.4285   -0.8267    0.0000 N   0  0
    0.7144   -0.4125    0.0000 C   0  0
    0.7144    0.4125    0.0000 C   0  0
    0.0000    0.8250    0.0000 C   0  0
    0.0000    1.6500    0.0000 C   0  0
   -0.7145    2.0625    0.0000 C   0  0
   -1.4290    1.6500    0.0000 C   0  0
   -1.4290    0.8250    0.0000 C   0  0
   -0.7144    0.4125    0.0000 C   0  0
   -0.7144   -0.4125    0.0000 C   0  0
    0.0000   -0.8250    0.0000 N   0  0
   -2.1438    2.0627    0.0000 C   0  0
   -2.1452    2.8877    0.0000 C   0  0
   -1.5741    3.2187    0.0000 Cl  0  0
   -2.8603    3.2991    0.0000 C   0  0
   -3.5741    2.8855    0.0000 C   0  0
   -3.5728    2.0605    0.0000 C   0  0
   -2.8576    1.6491    0.0000 C   0  0
   -2.8566    0.9891    0.0000 Cl  0  0
    0.7114   -2.0622    0.0000 N   0  0
    1.9053   -0.5525    0.0000 H   0  0
  1  2  1  0
  2  3  1  0
  3  4  1  0
  4  5  1  0
  5  6  1  0
  5  8  1  0
  6  7  1  0
  7  2  1  0
  8  9  2  0
  9 10  1  0
 10 11  2  0
 11 12  1  0
 12 13  1  0
 12 32  2  0
 13 14  1  0
 13 33  1  0
 14 15  2  0
 15 16  1  0
 16 17  2  0
 17 18  1  0
 18 19  2  0
 19 20  1  0
 19 24  1  0
 20 21  2  0
 21 16  1  0
 21 22  1  0
 22 23  2  0
 23 14  1  0
 24 25  2  0
 25 26  1  0
 25 27  1  0
 27 28  2  0
 28 29  1  0
 29 30  2  0
 30 24  1  0
 30 31  1  0
 32  8  1  0
M  END
> <CMPD_CHEMBLID>
CHEMBL3689709

> <STANDARD_TYPE>
Ki

> <RELATION>
=

> <STANDARD_VALUE>
2.42

> <STANDARD_UNITS>
nM

> <Molecular_Weight>
465.37768

$$$$

  SciTegic11272012012D

 44 47  0  0  0  0            999 V2000
    7.0067   -0.7313    0.0000 C   0  0
    6.4344   -0.4025    0.0000 C   0  0
    5.7202   -0.8163    0.0000 N   0  0
    5.7199   -1.6417    0.0000 C   0  0
    5.1484   -1.9719    0.0000 C   0  0
    5.0044   -0.4050    0.0000 C   0  0
    4.2902   -0.8188    0.0000 C   0  0
    3.5744   -0.4075    0.0000 N   0  0
    2.8602   -0.8213    0.0000 C   0  0
    2.8613   -1.4813    0.0000 O   0  0
    2.1444   -0.4100    0.0000 C   0  0
    1.4302   -0.8237    0.0000 C   0  0
    0.7144   -0.4125    0.0000 C   0  0
    0.7144    0.4125    0.0000 C   0  0
    0.0000    0.8250    0.0000 N   0  0
   -0.7144    0.4125    0.0000 C   0  0
   -1.4285    0.8267    0.0000 N   0  0
   -0.7144   -0.4125    0.0000 C   0  0
   -1.3273   -0.9641    0.0000 C   0  0
   -0.9918   -1.7178    0.0000 C   0  0
   -0.1713   -1.6316    0.0000 S   0  0
    0.0000   -0.8250    0.0000 C   0  0
   -2.1347   -0.7924    0.0000 C   0  0
   -2.4465   -0.0316    0.0000 C   0  0
   -3.2640    0.0788    0.0000 C   0  0
   -3.7684   -0.5741    0.0000 C   0  0
   -4.5867   -0.4654    0.0000 N   0  0
   -5.0904   -1.1194    0.0000 C   0  0
   -4.8387   -1.7295    0.0000 O   0  0
   -5.9086   -1.0107    0.0000 N   0  0
   -6.4123   -1.6646    0.0000 C   0  0
   -7.2303   -1.5572    0.0000 C   0  0
   -7.7324   -2.2118    0.0000 C   0  0
   -7.4165   -2.9739    0.0000 C   0  0
   -6.5985   -3.0814    0.0000 C   0  0
   -6.3458   -3.6912    0.0000 C   0  0
   -6.0964   -2.4268    0.0000 C   0  0
   -3.4552   -1.3373    0.0000 C   0  0
   -2.6375   -1.4477    0.0000 C   0  0
   -6.1183   -0.5022    0.0000 H   0  0
   -4.7964    0.0430    0.0000 H   0  0
   -1.4277    1.3767    0.0000 H   0  0
   -1.9053    0.5525    0.0000 H   0  0
    3.5735    0.1425    0.0000 H   0  0
  1  2  1  0
  2  3  1  0
  3  4  1  0
  3  6  1  0
  4  5  1  0
  6  7  1  0
  7  8  1  0
  8  9  1  0
  8 44  1  0
  9 10  2  0
  9 11  1  0
 11 12  2  0
 12 13  1  0
 13 14  2  0
 14 15  1  0
 15 16  2  0
 16 17  1  0
 16 18  1  0
 17 42  1  0
 17 43  1  0
 18 19  1  0
 19 20  2  0
 19 23  1  0
 20 21  1  0
 21 22  1  0
 22 13  1  0
 22 18  2  0
 23 24  2  0
 24 25  1  0
 25 26  2  0
 26 27  1  0
 26 38  1  0
 27 28  1  0
 27 41  1  0
 28 29  2  0
 28 30  1  0
 30 31  1  0
 30 40  1  0
 31 32  2  0
 32 33  1  0
 33 34  2  0
 34 35  1  0
 35 36  1  0
 35 37  2  0
 37 31  1  0
 38 39  2  0
 39 23  1  0
M  END
> <CMPD_CHEMBLID>
CHEMBL2004716

> <STANDARD_TYPE>
Ki

> <RELATION>
=

> <STANDARD_VALUE>
2.51

> <STANDARD_UNITS>
nM

> <Molecular_Weight>
542.69496

$$$$

  SciTegic11272012012D

 37 41  0  0  0  0            999 V2000
   -0.6488   -1.5370    0.0000 C   0  0
   -0.2626   -2.0722    0.0000 O   0  0
    0.5586   -1.9890    0.0000 C   0  0
    0.8954   -1.2354    0.0000 C   0  0
    1.5520   -1.1676    0.0000 O   0  0
    0.4125   -0.5678    0.0000 N   0  0
    0.6674    0.2169    0.0000 C   0  0
    0.0000    0.7018    0.0000 C   0  0
   -0.2543    1.4855    0.0000 N   0  0
   -1.0793    1.4854    0.0000 N   0  0
   -1.3342    0.7009    0.0000 C   0  0
   -2.1183    0.4474    0.0000 N   0  0
   -2.7312    1.0003    0.0000 C   0  0
   -2.5932    1.6457    0.0000 O   0  0
   -3.5167    0.7465    0.0000 C   0  0
   -4.1300    1.2982    0.0000 C   0  0
   -4.9145    1.0429    0.0000 C   0  0
   -5.0857    0.2358    0.0000 C   0  0
   -4.4723   -0.3159    0.0000 C   0  0
   -3.6878   -0.0606    0.0000 C   0  0
   -5.8706   -0.0196    0.0000 N   0  0
   -6.4849    0.5312    0.0000 C   0  0
   -7.2689    0.2746    0.0000 C   0  0
   -7.4388   -0.5327    0.0000 N   0  0
   -8.0661   -0.7379    0.0000 C   0  0
   -6.8246   -1.0834    0.0000 C   0  0
   -6.0405   -0.8269    0.0000 C   0  0
   -0.6674    0.2169    0.0000 C   0  0
   -0.4125   -0.5678    0.0000 C   0  0
    1.0425   -2.6578    0.0000 C   0  0
    0.7069   -3.4115    0.0000 C   0  0
    1.1918   -4.0790    0.0000 C   0  0
    2.0123   -3.9927    0.0000 C   0  0
    2.3479   -3.2391    0.0000 C   0  0
    1.8629   -2.5717    0.0000 C   0  0
   -2.2333   -0.0904    0.0000 H   0  0
    0.0691    1.9304    0.0000 H   0  0
  1  2  1  0
  2  3  1  0
  3  4  1  0
  3 30  1  0
  4  5  2  0
  4  6  1  0
  6  7  1  0
  7  8  1  0
  8  9  1  0
  9 10  1  0
  9 37  1  0
 10 11  2  0
 11 12  1  0
 11 28  1  0
 12 13  1  0
 12 36  1  0
 13 14  2  0
 13 15  1  0
 15 16  2  0
 16 17  1  0
 17 18  2  0
 18 19  1  0
 18 21  1  0
 19 20  2  0
 20 15  1  0
 21 22  1  0
 22 23  1  0
 23 24  1  0
 24 25  1  0
 24 26  1  0
 26 27  1  0
 27 21  1  0
 28  8  2  0
 28 29  1  0
 29  6  1  0
 30 31  2  0
 31 32  1  0
 32 33  2  0
 33 34  1  0
 34 35  2  0
 35 30  1  0
M  END
> <CMPD_CHEMBLID>
CHEMBL1981047

> <STANDARD_TYPE>
Ki

> <RELATION>
=

> <STANDARD_VALUE>
2.51

> <STANDARD_UNITS>
nM

> <Molecular_Weight>
474.5548

$$$$

  SciTegic11272012012D

 40 44  0  0  0  0            999 V2000
    3.3807   -1.0309    0.0000 C   0  0
    2.7242   -1.0988    0.0000 N   0  0
    2.1731   -0.4848    0.0000 C   0  0
    1.4293   -0.8252    0.0000 C   0  0
    1.5039   -1.6398    0.0000 C   0  0
    2.3106   -1.8126    0.0000 N   0  0
    0.7145   -0.4125    0.0000 C   0  0
    0.7145    0.4125    0.0000 C   0  0
    0.0000    0.8250    0.0000 N   0  0
   -0.7145    0.4125    0.0000 C   0  0
   -1.4285    0.8267    0.0000 N   0  0
   -0.7145   -0.4125    0.0000 C   0  0
   -1.3273   -0.9642    0.0000 C   0  0
   -0.9918   -1.7178    0.0000 C   0  0
   -0.1713   -1.6316    0.0000 S   0  0
    0.0000   -0.8250    0.0000 C   0  0
   -2.1347   -0.7924    0.0000 C   0  0
   -2.4465   -0.0316    0.0000 C   0  0
   -3.2641    0.0788    0.0000 C   0  0
   -3.7684   -0.5741    0.0000 C   0  0
   -4.5867   -0.4654    0.0000 N   0  0
   -5.0904   -1.1194    0.0000 C   0  0
   -4.8387   -1.7295    0.0000 O   0  0
   -5.9086   -1.0107    0.0000 N   0  0
   -6.4123   -1.6646    0.0000 C   0  0
   -7.2304   -1.5572    0.0000 C   0  0
   -7.7325   -2.2118    0.0000 C   0  0
   -7.4165   -2.9739    0.0000 C   0  0
   -7.9176   -3.6300    0.0000 O   0  0
   -7.6005   -4.3921    0.0000 C   0  0
   -8.0010   -4.9166    0.0000 F   0  0
   -6.9459   -4.4769    0.0000 F   0  0
   -6.5986   -3.0815    0.0000 C   0  0
   -6.0965   -2.4268    0.0000 C   0  0
   -3.4552   -1.3373    0.0000 C   0  0
   -2.6375   -1.4477    0.0000 C   0  0
   -6.1184   -0.5022    0.0000 H   0  0
   -4.7964    0.0430    0.0000 H   0  0
   -1.4277    1.3767    0.0000 H   0  0
   -1.9053    0.5525    0.0000 H   0  0
  1  2  1  0
  2  3  1  0
  3  4  2  0
  4  5  1  0
  4  7  1  0
  5  6  2  0
  6  2  1  0
  7  8  2  0
  8  9  1  0
  9 10  2  0
 10 11  1  0
 10 12  1  0
 11 39  1  0
 11 40  1  0
 12 13  1  0
 13 14  2  0
 13 17  1  0
 14 15  1  0
 15 16  1  0
 16  7  1  0
 16 12  2  0
 17 18  2  0
 18 19  1  0
 19 20  2  0
 20 21  1  0
 20 35  1  0
 21 22  1  0
 21 38  1  0
 22 23  2  0
 22 24  1  0
 24 25  1  0
 24 37  1  0
 25 26  2  0
 26 27  1  0
 27 28  2  0
 28 29  1  0
 28 33  1  0
 29 30  1  0
 30 31  1  0
 30 32  1  0
 33 34  2  0
 34 25  1  0
 35 36  2  0
 36 17  1  0
M  END
> <CMPD_CHEMBLID>
CHEMBL1988387

> <STANDARD_TYPE>
Ki

> <RELATION>
=

> <STANDARD_VALUE>
2.51

> <STANDARD_UNITS>
nM

> <Molecular_Weight>
506.52711

$$$$

  SciTegic11272012012D

 37 41  0  0  0  0            999 V2000
   -6.5693   -3.3962    0.0000 C   0  0
   -5.9365   -3.5839    0.0000 C   0  0
   -5.7442   -4.3862    0.0000 C   0  0
   -4.9533   -4.6208    0.0000 C   0  0
   -4.3546   -4.0531    0.0000 C   0  0
   -3.5627   -4.2862    0.0000 N   0  0
   -2.9646   -3.7174    0.0000 C   0  0
   -3.1195   -3.0758    0.0000 O   0  0
   -2.1727   -3.9505    0.0000 N   0  0
   -1.5745   -3.3817    0.0000 C   0  0
   -0.7828   -3.6135    0.0000 C   0  0
   -0.1861   -3.0437    0.0000 C   0  0
   -0.3810   -2.2449    0.0000 C   0  0
   -1.1730   -2.0103    0.0000 C   0  0
   -1.7696   -2.5800    0.0000 C   0  0
    0.1713   -1.6316    0.0000 C   0  0
    0.9918   -1.7178    0.0000 C   0  0
    1.3273   -0.9641    0.0000 S   0  0
    0.7144   -0.4125    0.0000 C   0  0
    0.7144    0.4125    0.0000 C   0  0
    0.0000    0.8250    0.0000 C   0  0
   -0.7144    0.4125    0.0000 N   0  0
   -0.7144   -0.4125    0.0000 C   0  0
   -1.4302   -0.8238    0.0000 N   0  0
    0.0000   -0.8250    0.0000 C   0  0
    1.4293    0.8252    0.0000 C   0  0
    2.1731    0.4848    0.0000 C   0  0
    2.7241    1.0988    0.0000 N   0  0
    2.3105    1.8126    0.0000 N   0  0
    2.5780    2.4160    0.0000 C   0  0
    1.5038    1.6398    0.0000 C   0  0
   -4.5469   -3.2508    0.0000 C   0  0
   -5.3379   -3.0162    0.0000 C   0  0
   -1.9061   -0.5481    0.0000 H   0  0
   -1.4312   -1.3738    0.0000 H   0  0
   -2.0436   -4.4851    0.0000 H   0  0
   -3.4336   -4.8208    0.0000 H   0  0
  1  2  1  0
  2  3  2  0
  3  4  1  0
  4  5  2  0
  5  6  1  0
  5 32  1  0
  6  7  1  0
  6 37  1  0
  7  8  2  0
  7  9  1  0
  9 10  1  0
  9 36  1  0
 10 11  2  0
 11 12  1  0
 12 13  2  0
 13 14  1  0
 13 16  1  0
 14 15  2  0
 15 10  1  0
 16 17  2  0
 17 18  1  0
 18 19  1  0
 19 20  2  0
 20 21  1  0
 20 26  1  0
 21 22  2  0
 22 23  1  0
 23 24  1  0
 23 25  2  0
 24 34  1  0
 24 35  1  0
 25 16  1  0
 25 19  1  0
 26 27  1  0
 27 28  2  0
 28 29  1  0
 29 30  1  0
 29 31  1  0
 31 26  2  0
 32 33  2  0
 33  2  1  0
M  END
> <CMPD_CHEMBLID>
CHEMBL1982466

> <STANDARD_TYPE>
Ki

> <RELATION>
=

> <STANDARD_VALUE>
2.51

> <STANDARD_UNITS>
nM

> <Molecular_Weight>
454.54678

$$$$

  SciTegic11272012012D

 41 45  0  0  0  0            999 V2000
    3.3807   -1.0309    0.0000 C   0  0
    2.7242   -1.0988    0.0000 C   0  0
    2.1731   -0.4848    0.0000 C   0  0
    1.4293   -0.8252    0.0000 N   0  0
    1.5039   -1.6398    0.0000 C   0  0
    2.3105   -1.8126    0.0000 N   0  0
    0.7144   -0.4125    0.0000 C   0  0
    0.7144    0.4125    0.0000 C   0  0
    0.0000    0.8250    0.0000 C   0  0
   -0.0017    1.6504    0.0000 N   0  0
   -0.7171    2.0622    0.0000 C   0  0
   -1.2882    1.7312    0.0000 O   0  0
   -0.7188    2.8876    0.0000 C   0  0
   -1.4334    3.3002    0.0000 C   0  0
   -1.4334    4.1252    0.0000 C   0  0
   -0.7189    4.5377    0.0000 C   0  0
   -0.7189    5.1977    0.0000 C   0  0
   -0.0044    4.1252    0.0000 C   0  0
    0.7113    4.5365    0.0000 N   0  0
    1.4256    4.1227    0.0000 C   0  0
    2.1415    4.5328    0.0000 N   0  0
    2.8546    4.1178    0.0000 C   0  0
    2.8517    3.2928    0.0000 C   0  0
    2.1358    2.8828    0.0000 C   0  0
    1.4228    3.2977    0.0000 N   0  0
    2.1330    2.0573    0.0000 C   0  0
    2.8454    1.6412    0.0000 C   0  0
    2.8412    0.8162    0.0000 C   0  0
    2.1248    0.4073    0.0000 C   0  0
    1.4123    0.8234    0.0000 N   0  0
    1.4165    1.6484    0.0000 C   0  0
   -0.0044    3.3002    0.0000 C   0  0
   -0.7144    0.4125    0.0000 C   0  0
   -0.7144   -0.4125    0.0000 C   0  0
    0.0000   -0.8250    0.0000 C   0  0
   -1.4293   -0.8252    0.0000 C   0  0
   -2.0011   -0.4956    0.0000 F   0  0
   -1.4291   -1.4852    0.0000 F   0  0
   -2.0007   -1.1555    0.0000 F   0  0
    0.7122    5.0865    0.0000 H   0  0
    0.4741    1.9263    0.0000 H   0  0
  1  2  1  0
  2  3  2  0
  3  4  1  0
  4  5  1  0
  4  7  1  0
  5  6  2  0
  6  2  1  0
  7  8  2  0
  8  9  1  0
  9 10  1  0
  9 33  2  0
 10 11  1  0
 10 41  1  0
 11 12  2  0
 11 13  1  0
 13 14  2  0
 14 15  1  0
 15 16  2  0
 16 17  1  0
 16 18  1  0
 18 19  1  0
 18 32  2  0
 19 20  1  0
 19 40  1  0
 20 21  2  0
 21 22  1  0
 22 23  2  0
 23 24  1  0
 24 25  2  0
 24 26  1  0
 25 20  1  0
 26 27  2  0
 27 28  1  0
 28 29  2  0
 29 30  1  0
 30 31  2  0
 31 26  1  0
 32 13  1  0
 33 34  1  0
 34 35  2  0
 34 36  1  0
 35  7  1  0
 36 37  1  0
 36 38  1  0
 36 39  1  0
M  END
> <CMPD_CHEMBLID>
CHEMBL255863

> <STANDARD_TYPE>
IC50

> <RELATION>
<

> <STANDARD_VALUE>
2.54

> <STANDARD_UNITS>
nM

> <Molecular_Weight>
529.51579

$$$$

  SciTegic11272012012D

 30 33  0  0  0  0            999 V2000
    1.2861   -0.7425    0.0000 C   0  0
    0.7144   -0.4125    0.0000 N   0  0
    0.7144    0.4125    0.0000 C   0  0
    1.2861    0.7425    0.0000 O   0  0
    0.0000    0.8250    0.0000 C   0  0
   -0.7144    0.4125    0.0000 C   0  0
   -0.7144   -0.4125    0.0000 C   0  0
   -1.4290   -0.8250    0.0000 C   0  0
   -1.4290   -1.6500    0.0000 N   0  0
   -0.7144   -2.0625    0.0000 C   0  0
   -0.7127   -2.8879    0.0000 N   0  0
    0.0027   -3.2997    0.0000 C   0  0
    0.0056   -4.1247    0.0000 C   0  0
    0.7215   -4.5347    0.0000 C   0  0
    1.4345   -4.1197    0.0000 C   0  0
    1.4317   -3.2947    0.0000 C   0  0
    2.1442   -2.8780    0.0000 O   0  0
    0.7158   -2.8847    0.0000 C   0  0
    0.0000   -1.6500    0.0000 N   0  0
    0.0000   -0.8250    0.0000 C   0  0
    0.0000    1.6504    0.0000 C   0  0
    0.7138    2.0641    0.0000 C   0  0
    1.2859    1.7350    0.0000 Cl  0  0
    0.7125    2.8891    0.0000 C   0  0
   -0.0026    3.3005    0.0000 C   0  0
   -0.7164    2.8868    0.0000 C   0  0
   -0.7151    2.0618    0.0000 C   0  0
   -1.2862    1.7310    0.0000 Cl  0  0
    2.1416   -2.3281    0.0000 H   0  0
   -1.1886   -3.1638    0.0000 H   0  0
  1  2  1  0
  2  3  1  0
  3  4  2  0
  3  5  1  0
  5  6  2  0
  5 21  1  0
  6  7  1  0
  7  8  2  0
  8  9  1  0
  9 10  2  0
 10 11  1  0
 10 19  1  0
 11 12  1  0
 11 30  1  0
 12 13  2  0
 13 14  1  0
 14 15  2  0
 15 16  1  0
 16 17  1  0
 16 18  2  0
 17 29  1  0
 18 12  1  0
 19 20  2  0
 20  2  1  0
 20  7  1  0
 21 22  2  0
 22 23  1  0
 22 24  1  0
 24 25  2  0
 25 26  1  0
 26 27  2  0
 27 21  1  0
 27 28  1  0
M  END
> <CMPD_CHEMBLID>
CHEMBL321193

> <STANDARD_TYPE>
IC50

> <RELATION>
=

> <STANDARD_VALUE>
2.6

> <STANDARD_UNITS>
nM

> <Molecular_Weight>
413.25676

$$$$

  SciTegic11272012012D

 39 43  0  0  0  0            999 V2000
    1.2861   -0.7425    0.0000 C   0  0
    0.7144   -0.4125    0.0000 C   0  0
    0.7144    0.4125    0.0000 C   0  0
    0.0000    0.8250    0.0000 C   0  0
   -0.7144    0.4125    0.0000 C   0  0
   -0.7144   -0.4125    0.0000 C   0  0
   -1.4290   -0.8250    0.0000 N   0  0
   -1.4290   -1.6500    0.0000 N   0  0
   -0.7144   -2.0625    0.0000 C   0  0
   -0.7127   -2.8879    0.0000 N   0  0
    0.0027   -3.2997    0.0000 C   0  0
    0.0056   -4.1247    0.0000 C   0  0
    0.7215   -4.5347    0.0000 C   0  0
    1.4345   -4.1197    0.0000 C   0  0
    1.4317   -3.2947    0.0000 C   0  0
    0.7158   -2.8847    0.0000 C   0  0
    2.1517   -4.5285    0.0000 C   0  0
    2.1551   -5.1885    0.0000 O   0  0
    2.8645   -4.1123    0.0000 N   0  0
    3.5817   -4.5211    0.0000 C   0  0
    4.2945   -4.1049    0.0000 C   0  0
    5.0116   -4.5136    0.0000 N   0  0
    5.7537   -4.1695    0.0000 C   0  0
    6.3078   -4.7807    0.0000 C   0  0
    5.8978   -5.4965    0.0000 C   0  0
    5.0903   -5.3278    0.0000 C   0  0
    0.0000   -1.6500    0.0000 N   0  0
    0.0000   -0.8250    0.0000 C   0  0
    0.0000    1.6504    0.0000 C   0  0
   -0.7151    2.0618    0.0000 C   0  0
   -0.7164    2.8868    0.0000 C   0  0
   -1.4311    3.2999    0.0000 O   0  0
   -0.0026    3.3005    0.0000 C   0  0
    0.7125    2.8891    0.0000 C   0  0
    0.7138    2.0641    0.0000 C   0  0
    1.2859    1.7350    0.0000 Cl  0  0
   -1.4312    3.8499    0.0000 H   0  0
    2.8616   -3.5623    0.0000 H   0  0
   -1.1886   -3.1638    0.0000 H   0  0
  1  2  1  0
  2  3  2  0
  3  4  1  0
  4  5  2  0
  4 29  1  0
  5  6  1  0
  6  7  2  0
  7  8  1  0
  8  9  2  0
  9 10  1  0
  9 27  1  0
 10 11  1  0
 10 39  1  0
 11 12  2  0
 12 13  1  0
 13 14  2  0
 14 15  1  0
 14 17  1  0
 15 16  2  0
 16 11  1  0
 17 18  2  0
 17 19  1  0
 19 20  1  0
 19 38  1  0
 20 21  1  0
 21 22  1  0
 22 23  1  0
 23 24  1  0
 24 25  1  0
 25 26  1  0
 26 22  1  0
 27 28  2  0
 28  2  1  0
 28  6  1  0
 29 30  2  0
 30 31  1  0
 31 32  1  0
 31 33  2  0
 32 37  1  0
 33 34  1  0
 34 35  2  0
 35 29  1  0
 35 36  1  0
M  END
> <CMPD_CHEMBLID>
CHEMBL400403

> <STANDARD_TYPE>
Ki

> <RELATION>
=

> <STANDARD_VALUE>
2.6

> <STANDARD_UNITS>
nM

> <Molecular_Weight>
502.99528

$$$$

  SciTegic11272012012D

 43 47  0  0  0  0            999 V2000
   -0.1742   -2.8724    0.0000 C   0  0
   -0.3789   -2.2450    0.0000 O   0  0
    0.1713   -1.6316    0.0000 C   0  0
    0.9918   -1.7178    0.0000 N   0  0
    1.3273   -0.9641    0.0000 N   0  0
    0.7144   -0.4125    0.0000 C   0  0
    0.7144    0.4125    0.0000 N   0  0
    0.0000    0.8250    0.0000 C   0  0
   -0.7144    0.4125    0.0000 C   0  0
   -0.7144   -0.4125    0.0000 C   0  0
    0.0000   -0.8250    0.0000 C   0  0
   -1.4293    0.8252    0.0000 C   0  0
   -2.1442    1.2379    0.0000 C   0  0
   -2.8591    1.6507    0.0000 C   0  0
   -3.5736    1.2382    0.0000 C   0  0
   -4.2880    1.6507    0.0000 C   0  0
   -4.2880    2.4757    0.0000 C   0  0
   -3.5736    2.8882    0.0000 C   0  0
   -2.8591    2.4757    0.0000 C   0  0
   -2.2875    2.8057    0.0000 C   0  0
   -5.0037    1.2394    0.0000 C   0  0
   -5.0049    0.5794    0.0000 O   0  0
   -5.7180    1.6531    0.0000 N   0  0
   -6.4337    1.2419    0.0000 C   0  0
   -7.1482    1.6544    0.0000 C   0  0
   -7.8627    1.2419    0.0000 C   0  0
   -7.8627    0.4169    0.0000 C   0  0
   -8.5785    0.0057    0.0000 C   0  0
   -9.2927    0.4194    0.0000 N   0  0
  -10.0086    0.0094    0.0000 C   0  0
  -10.7217    0.4244    0.0000 C   0  0
  -10.7188    1.2494    0.0000 N   0  0
  -11.2892    1.5814    0.0000 C   0  0
  -10.0029    1.6594    0.0000 C   0  0
   -9.2899    1.2444    0.0000 C   0  0
   -7.1482    0.0043    0.0000 C   0  0
   -6.4338    0.4168    0.0000 C   0  0
   -7.1483   -0.8211    0.0000 C   0  0
   -7.7196   -1.1514    0.0000 F   0  0
   -6.5766   -1.1509    0.0000 F   0  0
   -7.1480   -1.4811    0.0000 F   0  0
   -5.7170    2.2031    0.0000 H   0  0
    1.8653   -0.8497    0.0000 H   0  0
  1  2  1  0
  2  3  1  0
  3  4  2  0
  4  5  1  0
  5  6  1  0
  5 43  1  0
  6  7  2  0
  7  8  1  0
  8  9  2  0
  9 10  1  0
  9 12  1  0
 10 11  2  0
 11  3  1  0
 11  6  1  0
 12 13  3  0
 13 14  1  0
 14 15  2  0
 15 16  1  0
 16 17  2  0
 16 21  1  0
 17 18  1  0
 18 19  2  0
 19 14  1  0
 19 20  1  0
 21 22  2  0
 21 23  1  0
 23 24  1  0
 23 42  1  0
 24 25  2  0
 25 26  1  0
 26 27  2  0
 27 28  1  0
 27 36  1  0
 28 29  1  0
 29 30  1  0
 30 31  1  0
 31 32  1  0
 32 33  1  0
 32 34  1  0
 34 35  1  0
 35 29  1  0
 36 37  2  0
 36 38  1  0
 37 24  1  0
 38 39  1  0
 38 40  1  0
 38 41  1  0
M  END
> <CMPD_CHEMBLID>
CHEMBL2316872

> <STANDARD_TYPE>
IC50

> <RELATION>
=

> <STANDARD_VALUE>
2.72

> <STANDARD_UNITS>
nM

> <Molecular_Weight>
562.58547

$$$$

  SciTegic11272012012D

 31 34  0  0  0  0            999 V2000
   -1.6849   -2.8448    0.0000 C   0  0
   -1.4810   -3.4726    0.0000 C   0  0
   -2.0332   -4.0855    0.0000 C   0  0
   -1.7784   -4.8702    0.0000 C   0  0
   -0.9714   -5.0419    0.0000 C   0  0
   -0.4193   -4.4289    0.0000 C   0  0
    0.2263   -4.5662    0.0000 Cl  0  0
   -0.6741   -3.6442    0.0000 C   0  0
   -0.1229   -3.0297    0.0000 C   0  0
   -0.3789   -2.2450    0.0000 C   0  0
    0.1713   -1.6316    0.0000 N   0  0
    0.9918   -1.7178    0.0000 C   0  0
    1.3273   -0.9641    0.0000 N   0  0
    0.7144   -0.4125    0.0000 C   0  0
    0.7144    0.4125    0.0000 C   0  0
    1.4285    0.8267    0.0000 N   0  0
    1.4273    1.6521    0.0000 C   0  0
    2.1403    2.0672    0.0000 C   0  0
    2.1375    2.8922    0.0000 C   0  0
    1.4216    3.3022    0.0000 C   0  0
    0.7086    2.8872    0.0000 C   0  0
    0.7114    2.0622    0.0000 C   0  0
    1.4187    4.1276    0.0000 P   0  0
    1.9889    4.4600    0.0000 O   0  0
    0.8459    4.4555    0.0000 C   0  0
    1.4161    4.7876    0.0000 C   0  0
    0.0000    0.8250    0.0000 N   0  0
   -0.7144    0.4125    0.0000 C   0  0
   -0.7144   -0.4125    0.0000 N   0  0
    0.0000   -0.8250    0.0000 C   0  0
    1.9052    0.5525    0.0000 H   0  0
  1  2  1  0
  2  3  2  0
  3  4  1  0
  4  5  2  0
  5  6  1  0
  6  7  1  0
  6  8  2  0
  8  2  1  0
  8  9  1  0
  9 10  2  0
 10 11  1  0
 11 12  1  0
 12 13  2  0
 13 14  1  0
 14 15  2  0
 15 16  1  0
 15 27  1  0
 16 17  1  0
 16 31  1  0
 17 18  2  0
 18 19  1  0
 19 20  2  0
 20 21  1  0
 20 23  1  0
 21 22  2  0
 22 17  1  0
 23 24  2  0
 23 25  1  0
 23 26  1  0
 27 28  2  0
 28 29  1  0
 29 30  2  0
 30 11  1  0
 30 14  1  0
M  END
> <CMPD_CHEMBLID>
CHEMBL454611

> <STANDARD_TYPE>
IC50

> <RELATION>
=

> <STANDARD_VALUE>
2.77

> <STANDARD_UNITS>
nM

> <Molecular_Weight>
437.8618

$$$$

  SciTegic11272012012D

 31 34  0  0  0  0            999 V2000
    1.2861   -0.7425    0.0000 C   0  0
    0.7144   -0.4125    0.0000 N   0  0
    0.7144    0.4125    0.0000 C   0  0
    1.2861    0.7425    0.0000 O   0  0
    0.0000    0.8250    0.0000 C   0  0
   -0.7144    0.4125    0.0000 C   0  0
   -0.7144   -0.4125    0.0000 C   0  0
   -1.4290   -0.8250    0.0000 C   0  0
   -1.4290   -1.6500    0.0000 N   0  0
   -0.7144   -2.0625    0.0000 C   0  0
   -0.7127   -2.8879    0.0000 N   0  0
    0.0027   -3.2997    0.0000 C   0  0
    0.0056   -4.1247    0.0000 C   0  0
    0.7215   -4.5347    0.0000 C   0  0
    1.4345   -4.1197    0.0000 C   0  0
    1.4317   -3.2947    0.0000 C   0  0
    2.1442   -2.8780    0.0000 C   0  0
    2.1402   -2.0526    0.0000 O   0  0
    0.7158   -2.8847    0.0000 C   0  0
    0.0000   -1.6500    0.0000 N   0  0
    0.0000   -0.8250    0.0000 C   0  0
    0.0000    1.6504    0.0000 C   0  0
    0.7138    2.0641    0.0000 C   0  0
    1.2859    1.7350    0.0000 Cl  0  0
    0.7125    2.8891    0.0000 C   0  0
   -0.0026    3.3005    0.0000 C   0  0
   -0.7164    2.8868    0.0000 C   0  0
   -0.7151    2.0618    0.0000 C   0  0
   -1.2862    1.7310    0.0000 Cl  0  0
    2.6150   -1.7750    0.0000 H   0  0
   -1.1886   -3.1638    0.0000 H   0  0
  1  2  1  0
  2  3  1  0
  3  4  2  0
  3  5  1  0
  5  6  2  0
  5 22  1  0
  6  7  1  0
  7  8  2  0
  8  9  1  0
  9 10  2  0
 10 11  1  0
 10 20  1  0
 11 12  1  0
 11 31  1  0
 12 13  2  0
 13 14  1  0
 14 15  2  0
 15 16  1  0
 16 17  1  0
 16 19  2  0
 17 18  1  0
 18 30  1  0
 19 12  1  0
 20 21  2  0
 21  2  1  0
 21  7  1  0
 22 23  2  0
 23 24  1  0
 23 25  1  0
 25 26  2  0
 26 27  1  0
 27 28  2  0
 28 22  1  0
 28 29  1  0
M  END
> <CMPD_CHEMBLID>
CHEMBL327127

> <STANDARD_TYPE>
IC50

> <RELATION>
=

> <STANDARD_VALUE>
2.8

> <STANDARD_UNITS>
nM

> <Molecular_Weight>
427.28334

$$$$

  SciTegic11272012012D

 42 46  0  0  0  0            999 V2000
   -0.5838   -4.4538    0.0000 C   0  0
   -0.0117   -4.1248    0.0000 C   0  0
   -0.0108   -3.4648    0.0000 C   0  0
    0.7027   -4.5383    0.0000 N   0  0
    0.6999   -5.3638    0.0000 C   0  0
   -0.0162   -5.7745    0.0000 C   0  0
   -0.0190   -6.5999    0.0000 N   0  0
   -0.6871   -7.0719    0.0000 C   0  0
   -0.4333   -7.8569    0.0000 C   0  0
    0.3917   -7.8580    0.0000 C   0  0
    0.6478   -7.0737    0.0000 C   0  0
    1.4187   -4.1276    0.0000 S   0  0
    1.9893   -4.4594    0.0000 O   0  0
    1.4168   -4.7876    0.0000 O   0  0
    1.4216   -3.3022    0.0000 C   0  0
    2.1375   -2.8922    0.0000 C   0  0
    2.1403   -2.0672    0.0000 C   0  0
    1.4273   -1.6521    0.0000 C   0  0
    1.4285   -0.8267    0.0000 N   0  0
    0.7144   -0.4125    0.0000 C   0  0
    0.7144    0.4125    0.0000 N   0  0
    0.0000    0.8250    0.0000 N   0  0
   -0.7144    0.4125    0.0000 C   0  0
   -1.4289    0.8250    0.0000 C   0  0
   -2.1434    0.4125    0.0000 C   0  0
   -2.1434   -0.4125    0.0000 C   0  0
   -1.4289   -0.8250    0.0000 C   0  0
   -1.4289   -1.4850    0.0000 C   0  0
   -0.7144   -0.4125    0.0000 C   0  0
    0.0000   -0.8250    0.0000 N   0  0
   -2.8582    0.8252    0.0000 C   0  0
   -3.5721    0.4116    0.0000 C   0  0
   -4.2872    0.8230    0.0000 C   0  0
   -5.0023    0.4106    0.0000 O   0  0
   -4.2885    1.6480    0.0000 C   0  0
   -3.5747    2.0616    0.0000 C   0  0
   -2.8596    1.6502    0.0000 C   0  0
   -2.2885    1.9811    0.0000 Cl  0  0
    0.7114   -2.0622    0.0000 C   0  0
    0.7086   -2.8872    0.0000 C   0  0
   -5.4786    0.6855    0.0000 H   0  0
    1.9053   -0.5525    0.0000 H   0  0
  1  2  1  0
  2  3  1  0
  2  4  1  0
  4  5  1  0
  4 12  1  0
  5  6  1  0
  6  7  1  0
  7  8  1  0
  8  9  1  0
  9 10  1  0
 10 11  1  0
 11  7  1  0
 12 13  2  0
 12 14  2  0
 12 15  1  0
 15 16  2  0
 16 17  1  0
 17 18  2  0
 18 19  1  0
 18 39  1  0
 19 20  1  0
 19 42  1  0
 20 21  2  0
 21 22  1  0
 22 23  2  0
 23 24  1  0
 24 25  2  0
 25 26  1  0
 25 31  1  0
 26 27  2  0
 27 28  1  0
 27 29  1  0
 29 23  1  0
 29 30  2  0
 30 20  1  0
 31 32  2  0
 32 33  1  0
 33 34  1  0
 33 35  2  0
 34 41  1  0
 35 36  1  0
 36 37  2  0
 37 31  1  0
 37 38  1  0
 39 40  2  0
 40 15  1  0
M  END
> <CMPD_CHEMBLID>
CHEMBL250218

> <STANDARD_TYPE>
Ki

> <RELATION>
=

> <STANDARD_VALUE>
2.9

> <STANDARD_UNITS>
nM

> <Molecular_Weight>
581.12872

$$$$

  SciTegic11272012012D

 21 23  0  0  0  0            999 V2000
    1.9982   -1.9833    0.0000 C   0  0
    1.4273   -1.6522    0.0000 C   0  0
    1.4285   -0.8267    0.0000 C   0  0
    0.7145   -0.4125    0.0000 C   0  0
    0.7145    0.4125    0.0000 C   0  0
    0.0000    0.8250    0.0000 C   0  0
   -0.7145    0.4125    0.0000 C   0  0
   -1.4290    0.8250    0.0000 C   0  0
   -2.1435    0.4125    0.0000 C   0  0
   -2.8592    0.8238    0.0000 N   0  0
   -3.5735    0.4100    0.0000 C   0  0
   -3.5723   -0.2500    0.0000 O   0  0
   -4.2892    0.8213    0.0000 C   0  0
   -5.0707    0.7961    0.0000 C   0  0
   -4.6582    1.5106    0.0000 C   0  0
   -2.1435   -0.4125    0.0000 N   0  0
   -1.4290   -0.8250    0.0000 C   0  0
   -0.7145   -0.4125    0.0000 C   0  0
    0.0000   -0.8250    0.0000 C   0  0
    0.8552   -1.9812    0.0000 C   0  0
   -2.8602    1.3738    0.0000 H   0  0
  1  2  1  0
  2  3  2  0
  2 20  1  0
  3  4  1  0
  4  5  2  0
  5  6  1  0
  6  7  2  0
  7  8  1  0
  8  9  2  0
  9 10  1  0
  9 16  1  0
 10 11  1  0
 10 21  1  0
 11 12  2  0
 11 13  1  0
 13 14  1  0
 14 15  1  0
 15 13  1  0
 16 17  2  0
 17 18  1  0
 18  7  1  0
 18 19  2  0
 19  4  1  0
M  END
> <CMPD_CHEMBLID>
CHEMBL3685145

> <STANDARD_TYPE>
Ki

> <RELATION>
=

> <STANDARD_VALUE>
3

> <STANDARD_UNITS>
nM

> <Molecular_Weight>
266.33762

$$$$

  SciTegic11272012012D

 33 36  0  0  0  0            999 V2000
    0.7013   -5.1960    0.0000 C   0  0
    0.7037   -4.5360    0.0000 O   0  0
    1.4198   -4.1254    0.0000 C   0  0
    1.9903   -4.4573    0.0000 C   0  0
    1.4177   -4.7854    0.0000 C   0  0
    1.4228   -3.2999    0.0000 C   0  0
    0.8523   -2.9681    0.0000 O   0  0
    2.1389   -2.8894    0.0000 N   0  0
    2.1419   -2.0639    0.0000 C   0  0
    2.8570   -1.6525    0.0000 C   0  0
    2.8583   -0.8275    0.0000 C   0  0
    2.1445   -0.4139    0.0000 C   0  0
    2.1456    0.2461    0.0000 C   0  0
    1.4293   -0.8252    0.0000 C   0  0
    1.4281   -1.6502    0.0000 C   0  0
    0.7145   -0.4125    0.0000 C   0  0
    0.7145    0.4125    0.0000 C   0  0
    0.0000    0.8250    0.0000 C   0  0
   -0.7145    0.4125    0.0000 C   0  0
   -1.4290    0.8250    0.0000 C   0  0
   -2.1434    0.4125    0.0000 C   0  0
   -2.8592    0.8237    0.0000 N   0  0
   -3.5735    0.4100    0.0000 C   0  0
   -3.5723   -0.2500    0.0000 O   0  0
   -4.2892    0.8213    0.0000 C   0  0
   -5.0707    0.7961    0.0000 C   0  0
   -4.6581    1.5106    0.0000 C   0  0
   -2.1434   -0.4125    0.0000 N   0  0
   -1.4290   -0.8250    0.0000 C   0  0
   -0.7145   -0.4125    0.0000 C   0  0
    0.0000   -0.8250    0.0000 C   0  0
   -2.8602    1.3738    0.0000 H   0  0
    2.6143   -3.1660    0.0000 H   0  0
  1  2  1  0
  2  3  1  0
  3  4  1  0
  3  5  1  0
  3  6  1  0
  6  7  2  0
  6  8  1  0
  8  9  1  0
  8 33  1  0
  9 10  2  0
 10 11  1  0
 11 12  2  0
 12 13  1  0
 12 14  1  0
 14 15  2  0
 14 16  1  0
 15  9  1  0
 16 17  2  0
 17 18  1  0
 18 19  2  0
 19 20  1  0
 20 21  2  0
 21 22  1  0
 21 28  1  0
 22 23  1  0
 22 32  1  0
 23 24  2  0
 23 25  1  0
 25 26  1  0
 26 27  1  0
 27 25  1  0
 28 29  2  0
 29 30  1  0
 30 19  1  0
 30 31  2  0
 31 16  1  0
M  END
> <CMPD_CHEMBLID>
CHEMBL3689590

> <STANDARD_TYPE>
Ki

> <RELATION>
=

> <STANDARD_VALUE>
3

> <STANDARD_UNITS>
nM

> <Molecular_Weight>
417.50018

$$$$

  SciTegic11272012012D

 27 30  0  0  0  0            999 V2000
    0.7133   -2.7233    0.0000 C   0  0
    0.7134   -2.0633    0.0000 O   0  0
    1.4281   -1.6502    0.0000 C   0  0
    2.1419   -2.0639    0.0000 C   0  0
    2.8570   -1.6525    0.0000 C   0  0
    2.8583   -0.8275    0.0000 C   0  0
    2.1445   -0.4139    0.0000 C   0  0
    2.1458    0.4116    0.0000 C   0  0
    2.1469    1.0716    0.0000 N   0  0
    1.4293   -0.8252    0.0000 C   0  0
    0.7144   -0.4125    0.0000 C   0  0
    0.7144    0.4125    0.0000 C   0  0
    0.0000    0.8250    0.0000 C   0  0
   -0.7144    0.4125    0.0000 C   0  0
   -1.4290    0.8250    0.0000 C   0  0
   -2.1434    0.4125    0.0000 C   0  0
   -2.8591    0.8237    0.0000 N   0  0
   -3.5734    0.4100    0.0000 C   0  0
   -3.5722   -0.2500    0.0000 O   0  0
   -4.2891    0.8213    0.0000 C   0  0
   -5.0706    0.7961    0.0000 C   0  0
   -4.6581    1.5106    0.0000 C   0  0
   -2.1434   -0.4125    0.0000 N   0  0
   -1.4290   -0.8250    0.0000 C   0  0
   -0.7144   -0.4125    0.0000 C   0  0
    0.0000   -0.8250    0.0000 C   0  0
   -2.8601    1.3737    0.0000 H   0  0
  1  2  1  0
  2  3  1  0
  3  4  2  0
  4  5  1  0
  5  6  2  0
  6  7  1  0
  7  8  1  0
  7 10  2  0
  8  9  3  0
 10  3  1  0
 10 11  1  0
 11 12  2  0
 12 13  1  0
 13 14  2  0
 14 15  1  0
 15 16  2  0
 16 17  1  0
 16 23  1  0
 17 18  1  0
 17 27  1  0
 18 19  2  0
 18 20  1  0
 20 21  1  0
 21 22  1  0
 22 20  1  0
 23 24  2  0
 24 25  1  0
 25 14  1  0
 25 26  2  0
 26 11  1  0
M  END
> <CMPD_CHEMBLID>
CHEMBL3685046

> <STANDARD_TYPE>
Ki

> <RELATION>
=

> <STANDARD_VALUE>
3

> <STANDARD_UNITS>
nM

> <Molecular_Weight>
343.37858

$$$$

  SciTegic11272012012D

 31 34  0  0  0  0            999 V2000
    0.8472   -4.4537    0.0000 C   0  0
    1.4198   -4.1254    0.0000 C   0  0
    1.4228   -3.2999    0.0000 S   0  0
    0.8523   -2.9681    0.0000 O   0  0
    0.8500   -3.6280    0.0000 O   0  0
    2.1389   -2.8894    0.0000 N   0  0
    2.1419   -2.0639    0.0000 C   0  0
    2.8570   -1.6525    0.0000 C   0  0
    2.8583   -0.8275    0.0000 C   0  0
    2.1445   -0.4139    0.0000 C   0  0
    2.1456    0.2461    0.0000 C   0  0
    1.4293   -0.8252    0.0000 C   0  0
    1.4281   -1.6502    0.0000 C   0  0
    0.7145   -0.4125    0.0000 C   0  0
    0.7145    0.4125    0.0000 C   0  0
    0.0000    0.8250    0.0000 C   0  0
   -0.7145    0.4125    0.0000 C   0  0
   -1.4290    0.8250    0.0000 C   0  0
   -2.1434    0.4125    0.0000 C   0  0
   -2.8592    0.8237    0.0000 N   0  0
   -3.5735    0.4100    0.0000 C   0  0
   -3.5723   -0.2500    0.0000 O   0  0
   -4.2892    0.8213    0.0000 C   0  0
   -5.0707    0.7961    0.0000 C   0  0
   -4.6581    1.5106    0.0000 C   0  0
   -2.1434   -0.4125    0.0000 N   0  0
   -1.4290   -0.8250    0.0000 C   0  0
   -0.7145   -0.4125    0.0000 C   0  0
    0.0000   -0.8250    0.0000 C   0  0
   -2.8602    1.3738    0.0000 H   0  0
    2.6143   -3.1660    0.0000 H   0  0
  1  2  1  0
  2  3  1  0
  3  4  2  0
  3  5  2  0
  3  6  1  0
  6  7  1  0
  6 31  1  0
  7  8  2  0
  8  9  1  0
  9 10  2  0
 10 11  1  0
 10 12  1  0
 12 13  2  0
 12 14  1  0
 13  7  1  0
 14 15  2  0
 15 16  1  0
 16 17  2  0
 17 18  1  0
 18 19  2  0
 19 20  1  0
 19 26  1  0
 20 21  1  0
 20 30  1  0
 21 22  2  0
 21 23  1  0
 23 24  1  0
 24 25  1  0
 25 23  1  0
 26 27  2  0
 27 28  1  0
 28 17  1  0
 28 29  2  0
 29 14  1  0
M  END
> <CMPD_CHEMBLID>
CHEMBL3689593

> <STANDARD_TYPE>
Ki

> <RELATION>
=

> <STANDARD_VALUE>
3

> <STANDARD_UNITS>
nM

> <Molecular_Weight>
409.50132

$$$$

  SciTegic11272012012D

 28 31  0  0  0  0            999 V2000
    4.0930   -2.2689    0.0000 C   0  0
    3.4366   -2.3379    0.0000 N   0  0
    3.0241   -3.0523    0.0000 C   0  0
    2.2172   -2.8808    0.0000 C   0  0
    2.1413   -2.0663    0.0000 C   0  0
    2.8846   -1.7247    0.0000 C   0  0
    1.4273   -1.6521    0.0000 C   0  0
    0.8551   -1.9812    0.0000 O   0  0
    1.4285   -0.8267    0.0000 N   0  0
    0.7144   -0.4125    0.0000 C   0  0
    0.7144    0.4125    0.0000 C   0  0
    0.0000    0.8250    0.0000 C   0  0
    0.0000    1.6500    0.0000 C   0  0
   -0.7145    2.0625    0.0000 C   0  0
   -1.4290    1.6500    0.0000 C   0  0
   -1.4290    0.8250    0.0000 C   0  0
   -0.7144    0.4125    0.0000 C   0  0
   -0.7144   -0.4125    0.0000 C   0  0
    0.0000   -0.8250    0.0000 N   0  0
   -2.1438    2.0627    0.0000 C   0  0
   -2.8576    1.6491    0.0000 C   0  0
   -3.5728    2.0605    0.0000 C   0  0
   -4.1438    1.7295    0.0000 F   0  0
   -3.5741    2.8855    0.0000 C   0  0
   -2.8603    3.2991    0.0000 C   0  0
   -2.1452    2.8877    0.0000 C   0  0
   -1.5741    3.2187    0.0000 C   0  0
    1.9053   -0.5525    0.0000 H   0  0
  1  2  1  0
  2  3  1  0
  3  4  1  0
  4  5  1  0
  5  6  1  0
  5  7  1  0
  6  2  1  0
  7  8  2  0
  7  9  1  0
  9 10  1  0
  9 28  1  0
 10 11  2  0
 11 12  1  0
 12 13  2  0
 13 14  1  0
 14 15  2  0
 15 16  1  0
 15 20  1  0
 16 17  2  0
 17 12  1  0
 17 18  1  0
 18 19  2  0
 19 10  1  0
 20 21  2  0
 21 22  1  0
 22 23  1  0
 22 24  2  0
 24 25  1  0
 25 26  2  0
 26 20  1  0
 26 27  1  0
M  END
> <CMPD_CHEMBLID>
CHEMBL3685112

> <STANDARD_TYPE>
Ki

> <RELATION>
=

> <STANDARD_VALUE>
3

> <STANDARD_UNITS>
nM

> <Molecular_Weight>
363.42798

$$$$

  SciTegic11272012012D

 25 28  0  0  0  0            999 V2000
    1.0101   -2.0778    0.0000 C   0  0
    1.5039   -1.6399    0.0000 C   0  0
    2.3106   -1.8126    0.0000 N   0  0
    2.7243   -1.0988    0.0000 N   0  0
    2.1732   -0.4848    0.0000 C   0  0
    2.3076    0.1614    0.0000 C   0  0
    1.4293   -0.8252    0.0000 C   0  0
    0.7145   -0.4125    0.0000 C   0  0
    0.7145    0.4125    0.0000 C   0  0
    0.0000    0.8250    0.0000 C   0  0
   -0.7145    0.4125    0.0000 C   0  0
   -1.4290    0.8250    0.0000 C   0  0
   -2.1435    0.4125    0.0000 C   0  0
   -2.8592    0.8238    0.0000 N   0  0
   -3.5735    0.4100    0.0000 C   0  0
   -3.5723   -0.2500    0.0000 O   0  0
   -4.2892    0.8213    0.0000 C   0  0
   -5.0707    0.7961    0.0000 C   0  0
   -4.6582    1.5106    0.0000 C   0  0
   -2.1435   -0.4125    0.0000 N   0  0
   -1.4290   -0.8250    0.0000 C   0  0
   -0.7145   -0.4125    0.0000 C   0  0
    0.0000   -0.8250    0.0000 C   0  0
   -2.8602    1.3738    0.0000 H   0  0
    3.2713   -1.0422    0.0000 H   0  0
  1  2  1  0
  2  3  2  0
  3  4  1  0
  4  5  1  0
  4 25  1  0
  5  6  1  0
  5  7  2  0
  7  2  1  0
  7  8  1  0
  8  9  2  0
  9 10  1  0
 10 11  2  0
 11 12  1  0
 12 13  2  0
 13 14  1  0
 13 20  1  0
 14 15  1  0
 14 24  1  0
 15 16  2  0
 15 17  1  0
 17 18  1  0
 18 19  1  0
 19 17  1  0
 20 21  2  0
 21 22  1  0
 22 11  1  0
 22 23  2  0
 23  8  1  0
M  END
> <CMPD_CHEMBLID>
CHEMBL3685022

> <STANDARD_TYPE>
Ki

> <RELATION>
=

> <STANDARD_VALUE>
3

> <STANDARD_UNITS>
nM

> <Molecular_Weight>
306.36172

$$$$

  SciTegic11272012012D

 23 26  0  0  0  0            999 V2000
    3.3808   -1.0309    0.0000 C   0  0
    2.7243   -1.0988    0.0000 N   0  0
    2.1732   -0.4848    0.0000 C   0  0
    1.4293   -0.8252    0.0000 C   0  0
    1.5039   -1.6399    0.0000 C   0  0
    2.3106   -1.8126    0.0000 N   0  0
    0.7145   -0.4125    0.0000 C   0  0
    0.7145    0.4125    0.0000 C   0  0
    0.0000    0.8250    0.0000 C   0  0
   -0.7145    0.4125    0.0000 C   0  0
   -1.4290    0.8250    0.0000 C   0  0
   -2.1435    0.4125    0.0000 C   0  0
   -2.8592    0.8238    0.0000 N   0  0
   -3.5735    0.4100    0.0000 C   0  0
   -3.5723   -0.2500    0.0000 O   0  0
   -4.2892    0.8213    0.0000 C   0  0
   -5.0707    0.7961    0.0000 C   0  0
   -4.6582    1.5106    0.0000 C   0  0
   -2.1435   -0.4125    0.0000 N   0  0
   -1.4290   -0.8250    0.0000 C   0  0
   -0.7145   -0.4125    0.0000 C   0  0
    0.0000   -0.8250    0.0000 C   0  0
   -2.8602    1.3738    0.0000 H   0  0
  1  2  1  0
  2  3  1  0
  3  4  2  0
  4  5  1  0
  4  7  1  0
  5  6  2  0
  6  2  1  0
  7  8  2  0
  8  9  1  0
  9 10  2  0
 10 11  1  0
 11 12  2  0
 12 13  1  0
 12 19  1  0
 13 14  1  0
 13 23  1  0
 14 15  2  0
 14 16  1  0
 16 17  1  0
 17 18  1  0
 18 16  1  0
 19 20  2  0
 20 21  1  0
 21 10  1  0
 21 22  2  0
 22  7  1  0
M  END
> <CMPD_CHEMBLID>
CHEMBL3685021

> <STANDARD_TYPE>
Ki

> <RELATION>
=

> <STANDARD_VALUE>
3

> <STANDARD_UNITS>
nM

> <Molecular_Weight>
292.33514

$$$$

  SciTegic11272012012D

 25 27  0  0  0  0            999 V2000
    2.1404   -2.7264    0.0000 C   0  0
    2.1413   -2.0663    0.0000 N   0  0
    2.7135   -1.7373    0.0000 C   0  0
    1.4273   -1.6521    0.0000 C   0  0
    0.8551   -1.9812    0.0000 O   0  0
    1.4285   -0.8267    0.0000 N   0  0
    0.7144   -0.4125    0.0000 C   0  0
    0.7144    0.4125    0.0000 C   0  0
    0.0000    0.8250    0.0000 C   0  0
    0.0000    1.6500    0.0000 C   0  0
   -0.7145    2.0625    0.0000 C   0  0
   -1.4290    1.6500    0.0000 C   0  0
   -1.4290    0.8250    0.0000 C   0  0
   -0.7144    0.4125    0.0000 C   0  0
   -0.7144   -0.4125    0.0000 C   0  0
    0.0000   -0.8250    0.0000 N   0  0
   -2.1438    2.0627    0.0000 C   0  0
   -2.8576    1.6491    0.0000 C   0  0
   -3.5728    2.0605    0.0000 C   0  0
   -4.1438    1.7295    0.0000 F   0  0
   -3.5741    2.8855    0.0000 C   0  0
   -2.8603    3.2991    0.0000 C   0  0
   -2.1452    2.8877    0.0000 C   0  0
   -1.5741    3.2187    0.0000 C   0  0
    1.9053   -0.5525    0.0000 H   0  0
  1  2  1  0
  2  3  1  0
  2  4  1  0
  4  5  2  0
  4  6  1  0
  6  7  1  0
  6 25  1  0
  7  8  2  0
  8  9  1  0
  9 10  2  0
 10 11  1  0
 11 12  2  0
 12 13  1  0
 12 17  1  0
 13 14  2  0
 14  9  1  0
 14 15  1  0
 15 16  2  0
 16  7  1  0
 17 18  2  0
 18 19  1  0
 19 20  1  0
 19 21  2  0
 21 22  1  0
 22 23  2  0
 23 17  1  0
 23 24  1  0
M  END
> <CMPD_CHEMBLID>
CHEMBL3685079

> <STANDARD_TYPE>
Ki

> <RELATION>
=

> <STANDARD_VALUE>
3

> <STANDARD_UNITS>
nM

> <Molecular_Weight>
323.36412

$$$$

  SciTegic11272012012D

 28 31  0  0  0  0            999 V2000
    2.1456    0.2461    0.0000 C   0  0
    2.1445   -0.4139    0.0000 C   0  0
    2.8583   -0.8275    0.0000 C   0  0
    2.8570   -1.6525    0.0000 C   0  0
    2.1419   -2.0639    0.0000 N   0  0
    1.4281   -1.6502    0.0000 C   0  0
    1.4293   -0.8252    0.0000 C   0  0
    0.7145   -0.4125    0.0000 C   0  0
    0.7145    0.4125    0.0000 C   0  0
    0.0000    0.8250    0.0000 C   0  0
   -0.7145    0.4125    0.0000 C   0  0
   -1.4290    0.8250    0.0000 C   0  0
   -2.1434    0.4125    0.0000 C   0  0
   -2.8592    0.8237    0.0000 N   0  0
   -3.5735    0.4100    0.0000 C   0  0
   -3.5723   -0.2500    0.0000 O   0  0
   -4.2892    0.8213    0.0000 C   0  0
   -5.0706    0.7961    0.0000 C   0  0
   -4.6581    1.5106    0.0000 C   0  0
   -2.1434   -0.4125    0.0000 N   0  0
   -1.4290   -0.8250    0.0000 C   0  0
   -0.7145   -0.4125    0.0000 C   0  0
    0.0000   -0.8250    0.0000 C   0  0
    3.5704   -2.0679    0.0000 C   0  0
    4.1431   -1.7398    0.0000 O   0  0
    3.5679   -2.8933    0.0000 O   0  0
    4.0432   -3.1701    0.0000 H   0  0
   -2.8601    1.3738    0.0000 H   0  0
  1  2  1  0
  2  3  2  0
  3  4  1  0
  4  5  2  0
  4 24  1  0
  5  6  1  0
  6  7  2  0
  7  2  1  0
  7  8  1  0
  8  9  2  0
  9 10  1  0
 10 11  2  0
 11 12  1  0
 12 13  2  0
 13 14  1  0
 13 20  1  0
 14 15  1  0
 14 28  1  0
 15 16  2  0
 15 17  1  0
 17 18  1  0
 18 19  1  0
 19 17  1  0
 20 21  2  0
 21 22  1  0
 22 11  1  0
 22 23  2  0
 23  8  1  0
 24 25  2  0
 24 26  1  0
 26 27  1  0
M  END
> <CMPD_CHEMBLID>
CHEMBL3689621

> <STANDARD_TYPE>
Ki

> <RELATION>
=

> <STANDARD_VALUE>
3

> <STANDARD_UNITS>
nM

> <Molecular_Weight>
347.36728

$$$$

  SciTegic11272012012D

 42 48  0  0  0  0            999 V2000
    2.0013   -0.4930    0.0000 C   0  0
    1.4302   -0.8237    0.0000 O   0  0
    0.7144   -0.4125    0.0000 C   0  0
    0.7144    0.4125    0.0000 C   0  0
    0.0000    0.8250    0.0000 C   0  0
   -0.1713    1.6316    0.0000 N   0  0
   -0.9918    1.7178    0.0000 N   0  0
   -1.3273    0.9641    0.0000 C   0  0
   -2.1347    0.7924    0.0000 C   0  0
   -2.3963    0.0169    0.0000 N   0  0
   -3.2206    0.0387    0.0000 C   0  0
   -3.7886   -0.5597    0.0000 C   0  0
   -4.5907   -0.3670    0.0000 C   0  0
   -4.8250    0.4241    0.0000 C   0  0
   -4.2570    1.0224    0.0000 C   0  0
   -3.4548    0.8297    0.0000 C   0  0
   -2.7753    1.2968    0.0000 N   0  0
   -5.1590   -0.9656    0.0000 N   0  0
   -4.9261   -1.7571    0.0000 C   0  0
   -5.4950   -2.3545    0.0000 C   0  0
   -6.2969   -2.1606    0.0000 C   0  0
   -6.5299   -1.3692    0.0000 C   0  0
   -5.9610   -0.7717    0.0000 C   0  0
   -6.8661   -2.7584    0.0000 N   0  0
   -6.6344   -3.5502    0.0000 C   0  0
   -7.2043   -4.1468    0.0000 C   0  0
   -8.0059   -3.9515    0.0000 C   0  0
   -8.2376   -3.1597    0.0000 C   0  0
   -7.6677   -2.5632    0.0000 C   0  0
   -0.7144    0.4125    0.0000 C   0  0
   -0.7144   -0.4125    0.0000 C   0  0
    0.0000   -0.8250    0.0000 C   0  0
   -0.0017   -1.6504    0.0000 O   0  0
   -0.7171   -2.0622    0.0000 C   0  0
   -0.7188   -2.8876    0.0000 C   0  0
   -1.4333   -3.3002    0.0000 C   0  0
   -1.4333   -4.1252    0.0000 C   0  0
   -0.7188   -4.5377    0.0000 C   0  0
   -0.0044   -4.1252    0.0000 C   0  0
   -0.0043   -3.3002    0.0000 C   0  0
   -2.7575    1.8465    0.0000 H   0  0
    0.1967    2.0403    0.0000 H   0  0
  1  2  1  0
  2  3  1  0
  3  4  2  0
  4  5  1  0
  5  6  1  0
  6  7  1  0
  6 42  1  0
  7  8  2  0
  8  9  1  0
  8 30  1  0
  9 10  2  0
 10 11  1  0
 11 12  2  0
 12 13  1  0
 13 14  2  0
 13 18  1  0
 14 15  1  0
 15 16  2  0
 16 11  1  0
 16 17  1  0
 17  9  1  0
 17 41  1  0
 18 19  1  0
 19 20  1  0
 20 21  1  0
 21 22  1  0
 21 24  1  0
 22 23  1  0
 23 18  1  0
 24 25  1  0
 25 26  1  0
 26 27  1  0
 27 28  1  0
 28 29  1  0
 29 24  1  0
 30  5  2  0
 30 31  1  0
 31 32  2  0
 32  3  1  0
 32 33  1  0
 33 34  1  0
 34 35  1  0
 35 36  2  0
 36 37  1  0
 37 38  2  0
 38 39  1  0
 39 40  2  0
 40 35  1  0
M  END
> <CMPD_CHEMBLID>
CHEMBL210827

> <STANDARD_TYPE>
IC50

> <RELATION>
=

> <STANDARD_VALUE>
3

> <STANDARD_UNITS>
nM

> <Molecular_Weight>
536.66724

$$$$

  SciTegic11272012012D

 31 35  0  0  0  0            999 V2000
    2.1455    0.2461    0.0000 C   0  0
    2.1445   -0.4139    0.0000 C   0  0
    2.8583   -0.8275    0.0000 C   0  0
    2.8570   -1.6525    0.0000 C   0  0
    2.1419   -2.0639    0.0000 C   0  0
    2.1408   -2.7239    0.0000 F   0  0
    1.4281   -1.6502    0.0000 C   0  0
    1.4293   -0.8252    0.0000 C   0  0
    0.7144   -0.4125    0.0000 C   0  0
    0.7144    0.4125    0.0000 C   0  0
    0.0000    0.8250    0.0000 C   0  0
    0.0000    1.6500    0.0000 C   0  0
   -0.7145    2.0625    0.0000 N   0  0
   -1.4290    1.6500    0.0000 C   0  0
   -2.1447    2.0612    0.0000 N   0  0
   -2.8590    1.6475    0.0000 C   0  0
   -2.8578    0.9875    0.0000 O   0  0
   -3.5747    2.0588    0.0000 C   0  0
   -4.3561    2.0337    0.0000 C   0  0
   -3.9436    2.7481    0.0000 C   0  0
   -1.4290    0.8250    0.0000 C   0  0
   -0.7144    0.4125    0.0000 C   0  0
   -0.7144   -0.4125    0.0000 C   0  0
    0.0000   -0.8250    0.0000 N   0  0
   -1.4293   -0.8252    0.0000 N   0  0
   -2.1445   -0.4139    0.0000 C   0  0
   -2.8583   -0.8275    0.0000 C   0  0
   -2.8570   -1.6525    0.0000 C   0  0
   -2.1419   -2.0639    0.0000 C   0  0
   -1.4280   -1.6502    0.0000 C   0  0
   -2.1457    2.6112    0.0000 H   0  0
  1  2  1  0
  2  3  2  0
  3  4  1  0
  4  5  2  0
  5  6  1  0
  5  7  1  0
  7  8  2  0
  8  2  1  0
  8  9  1  0
  9 10  2  0
 10 11  1  0
 11 12  2  0
 12 13  1  0
 13 14  2  0
 14 15  1  0
 14 21  1  0
 15 16  1  0
 15 31  1  0
 16 17  2  0
 16 18  1  0
 18 19  1  0
 19 20  1  0
 20 18  1  0
 21 22  2  0
 22 11  1  0
 22 23  1  0
 23 24  2  0
 23 25  1  0
 24  9  1  0
 25 26  1  0
 26 27  1  0
 27 28  1  0
 28 29  1  0
 29 30  1  0
 30 25  1  0
M  END
> <CMPD_CHEMBLID>
CHEMBL3689651

> <STANDARD_TYPE>
Ki

> <RELATION>
=

> <STANDARD_VALUE>
3

> <STANDARD_UNITS>
nM

> <Molecular_Weight>
404.4799

$$$$

  SciTegic11272012012D

 34 39  0  0  0  0            999 V2000
    3.5562   -5.2033    0.0000 C   0  0
    3.5595   -4.5433    0.0000 N   0  0
    4.2761   -4.1344    0.0000 C   0  0
    4.2802   -3.3094    0.0000 C   0  0
    3.5679   -2.8933    0.0000 N   0  0
    3.5703   -2.0678    0.0000 C   0  0
    2.8570   -1.6525    0.0000 C   0  0
    2.8583   -0.8275    0.0000 C   0  0
    2.1445   -0.4139    0.0000 C   0  0
    1.4293   -0.8252    0.0000 C   0  0
    1.4281   -1.6502    0.0000 C   0  0
    2.1419   -2.0639    0.0000 C   0  0
    0.7144   -0.4125    0.0000 C   0  0
    0.7144    0.4125    0.0000 C   0  0
    0.0000    0.8250    0.0000 N   0  0
   -0.7144    0.4125    0.0000 C   0  0
   -1.4986    0.6674    0.0000 N   0  0
   -1.9836    0.0000    0.0000 C   0  0
   -1.4986   -0.6674    0.0000 C   0  0
   -1.7536   -1.4525    0.0000 C   0  0
   -2.5429   -1.6831    0.0000 C   0  0
   -2.7380   -2.4847    0.0000 C   0  0
   -2.1413   -3.0545    0.0000 C   0  0
   -2.1656   -3.8787    0.0000 N   0  0
   -1.3887   -4.1565    0.0000 C   0  0
   -0.8845   -3.5035    0.0000 C   0  0
   -1.3495   -2.8226    0.0000 C   0  0
   -1.1544   -2.0210    0.0000 C   0  0
   -0.7144   -0.4125    0.0000 C   0  0
    0.0000   -0.8250    0.0000 C   0  0
    2.8513   -3.3022    0.0000 C   0  0
    2.8471   -4.1272    0.0000 C   0  0
   -2.6198   -4.1887    0.0000 H   0  0
   -1.6685    1.1905    0.0000 H   0  0
  1  2  1  0
  2  3  1  0
  3  4  1  0
  4  5  1  0
  5  6  1  0
  5 31  1  0
  6  7  1  0
  7  8  2  0
  8  9  1  0
  9 10  2  0
 10 11  1  0
 10 13  1  0
 11 12  2  0
 12  7  1  0
 13 14  2  0
 14 15  1  0
 15 16  2  0
 16 17  1  0
 17 18  1  0
 17 34  1  0
 18 19  2  0
 19 20  1  0
 19 29  1  0
 20 21  2  0
 21 22  1  0
 22 23  2  0
 23 24  1  0
 24 25  1  0
 24 33  1  0
 25 26  2  0
 26 27  1  0
 27 23  1  0
 27 28  2  0
 28 20  1  0
 29 16  1  0
 29 30  2  0
 30 13  1  0
 31 32  1  0
 32  2  1  0
M  END
> <CMPD_CHEMBLID>
CHEMBL2436978

> <STANDARD_TYPE>
IC50

> <RELATION>
=

> <STANDARD_VALUE>
3

> <STANDARD_UNITS>
nM

> <Molecular_Weight>
421.53678

$$$$

  SciTegic11272012012D

 24 27  0  0  0  0            999 V2000
    2.1455    0.2461    0.0000 Cl  0  0
    2.1445   -0.4139    0.0000 C   0  0
    2.8583   -0.8275    0.0000 C   0  0
    2.8570   -1.6525    0.0000 C   0  0
    2.1419   -2.0639    0.0000 C   0  0
    1.4281   -1.6502    0.0000 C   0  0
    1.4293   -0.8252    0.0000 C   0  0
    0.7144   -0.4125    0.0000 C   0  0
    0.7144    0.4125    0.0000 C   0  0
    0.0000    0.8250    0.0000 C   0  0
   -0.7144    0.4125    0.0000 C   0  0
   -1.4290    0.8250    0.0000 C   0  0
   -2.1434    0.4125    0.0000 C   0  0
   -2.8591    0.8237    0.0000 N   0  0
   -3.5734    0.4100    0.0000 C   0  0
   -3.5722   -0.2500    0.0000 O   0  0
   -4.2891    0.8213    0.0000 C   0  0
   -5.0706    0.7961    0.0000 C   0  0
   -4.6581    1.5106    0.0000 C   0  0
   -2.1434   -0.4125    0.0000 N   0  0
   -1.4290   -0.8250    0.0000 C   0  0
   -0.7144   -0.4125    0.0000 C   0  0
    0.0000   -0.8250    0.0000 N   0  0
   -2.8601    1.3737    0.0000 H   0  0
  1  2  1  0
  2  3  2  0
  3  4  1  0
  4  5  2  0
  5  6  1  0
  6  7  2  0
  7  2  1  0
  7  8  1  0
  8  9  2  0
  9 10  1  0
 10 11  2  0
 11 12  1  0
 12 13  2  0
 13 14  1  0
 13 20  1  0
 14 15  1  0
 14 24  1  0
 15 16  2  0
 15 17  1  0
 17 18  1  0
 18 19  1  0
 19 17  1  0
 20 21  2  0
 21 22  1  0
 22 11  1  0
 22 23  2  0
 23  8  1  0
M  END
> <CMPD_CHEMBLID>
CHEMBL3689684

> <STANDARD_TYPE>
Ki

> <RELATION>
=

> <STANDARD_VALUE>
3

> <STANDARD_UNITS>
nM

> <Molecular_Weight>
323.77626

$$$$

  SciTegic11272012012D

 40 44  0  0  0  0            999 V2000
    1.2861   -0.7425    0.0000 C   0  0
    0.7144   -0.4125    0.0000 C   0  0
    0.7144    0.4125    0.0000 C   0  0
    0.0000    0.8250    0.0000 C   0  0
   -0.7144    0.4125    0.0000 C   0  0
   -0.7144   -0.4125    0.0000 C   0  0
   -1.4290   -0.8250    0.0000 N   0  0
   -1.4290   -1.6500    0.0000 N   0  0
   -0.7144   -2.0625    0.0000 C   0  0
   -0.7127   -2.8879    0.0000 N   0  0
    0.0027   -3.2997    0.0000 C   0  0
    0.0056   -4.1247    0.0000 C   0  0
    0.7215   -4.5347    0.0000 C   0  0
    1.4345   -4.1197    0.0000 C   0  0
    1.4317   -3.2947    0.0000 C   0  0
    0.7158   -2.8847    0.0000 C   0  0
    2.1508   -4.5300    0.0000 S   0  0
    2.7211   -4.1978    0.0000 O   0  0
    2.7237   -4.8577    0.0000 O   0  0
    2.1542   -5.3554    0.0000 N   0  0
    2.8705   -5.7656    0.0000 C   0  0
    2.8739   -6.5911    0.0000 C   0  0
    3.5902   -7.0014    0.0000 N   0  0
    3.6705   -7.8154    0.0000 C   0  0
    4.4784   -7.9825    0.0000 C   0  0
    4.8870   -7.2657    0.0000 C   0  0
    4.3315   -6.6557    0.0000 C   0  0
    0.0000   -1.6500    0.0000 N   0  0
    0.0000   -0.8250    0.0000 C   0  0
    0.0000    1.6504    0.0000 C   0  0
   -0.7151    2.0618    0.0000 C   0  0
   -0.7164    2.8868    0.0000 C   0  0
   -1.4311    3.2999    0.0000 O   0  0
   -0.0026    3.3005    0.0000 C   0  0
    0.7125    2.8891    0.0000 C   0  0
    0.7138    2.0641    0.0000 C   0  0
    1.2859    1.7350    0.0000 Cl  0  0
   -1.4312    3.8499    0.0000 H   0  0
    1.6789   -5.6322    0.0000 H   0  0
   -1.1886   -3.1638    0.0000 H   0  0
  1  2  1  0
  2  3  2  0
  3  4  1  0
  4  5  2  0
  4 30  1  0
  5  6  1  0
  6  7  2  0
  7  8  1  0
  8  9  2  0
  9 10  1  0
  9 28  1  0
 10 11  1  0
 10 40  1  0
 11 12  2  0
 12 13  1  0
 13 14  2  0
 14 15  1  0
 14 17  1  0
 15 16  2  0
 16 11  1  0
 17 18  2  0
 17 19  2  0
 17 20  1  0
 20 21  1  0
 20 39  1  0
 21 22  1  0
 22 23  1  0
 23 24  1  0
 24 25  1  0
 25 26  1  0
 26 27  1  0
 27 23  1  0
 28 29  2  0
 29  2  1  0
 29  6  1  0
 30 31  2  0
 31 32  1  0
 32 33  1  0
 32 34  2  0
 33 38  1  0
 34 35  1  0
 35 36  2  0
 36 30  1  0
 36 37  1  0
M  END
> <CMPD_CHEMBLID>
CHEMBL249821

> <STANDARD_TYPE>
Ki

> <RELATION>
=

> <STANDARD_VALUE>
3

> <STANDARD_UNITS>
nM

> <Molecular_Weight>
539.04898

$$$$

  SciTegic11272012012D

 27 29  0  0  0  0            999 V2000
    2.1455    0.2461    0.0000 C   0  0
    2.1445   -0.4139    0.0000 C   0  0
    2.8583   -0.8275    0.0000 C   0  0
    2.8570   -1.6525    0.0000 C   0  0
    2.1419   -2.0639    0.0000 C   0  0
    2.1408   -2.7239    0.0000 F   0  0
    1.4281   -1.6502    0.0000 C   0  0
    1.4293   -0.8252    0.0000 C   0  0
    0.7144   -0.4125    0.0000 C   0  0
    0.7144    0.4125    0.0000 C   0  0
    0.0000    0.8250    0.0000 C   0  0
   -0.7144    0.4125    0.0000 C   0  0
   -1.4290    0.8250    0.0000 C   0  0
   -2.1434    0.4125    0.0000 C   0  0
   -2.8591    0.8237    0.0000 N   0  0
   -3.5734    0.4100    0.0000 C   0  0
   -3.5722   -0.2500    0.0000 O   0  0
   -4.2891    0.8213    0.0000 C   0  0
   -5.0034    0.4075    0.0000 C   0  0
   -5.5757    0.7363    0.0000 F   0  0
   -5.5744    0.0764    0.0000 F   0  0
   -5.0023   -0.2525    0.0000 F   0  0
   -2.1434   -0.4125    0.0000 N   0  0
   -1.4290   -0.8250    0.0000 C   0  0
   -0.7144   -0.4125    0.0000 C   0  0
    0.0000   -0.8250    0.0000 C   0  0
   -2.8601    1.3737    0.0000 H   0  0
  1  2  1  0
  2  3  2  0
  3  4  1  0
  4  5  2  0
  5  6  1  0
  5  7  1  0
  7  8  2  0
  8  2  1  0
  8  9  1  0
  9 10  2  0
 10 11  1  0
 11 12  2  0
 12 13  1  0
 13 14  2  0
 14 15  1  0
 14 23  1  0
 15 16  1  0
 15 27  1  0
 16 17  2  0
 16 18  1  0
 18 19  1  0
 19 20  1  0
 19 21  1  0
 19 22  1  0
 23 24  2  0
 24 25  1  0
 25 12  1  0
 25 26  2  0
 26  9  1  0
M  END
> <CMPD_CHEMBLID>
CHEMBL3685042

> <STANDARD_TYPE>
Ki

> <RELATION>
=

> <STANDARD_VALUE>
3

> <STANDARD_UNITS>
nM

> <Molecular_Weight>
362.32087

$$$$

  SciTegic11272012012D

 25 28  0  0  0  0            999 V2000
    3.5704   -2.0679    0.0000 O   0  0
    2.8570   -1.6525    0.0000 C   0  0
    2.8584   -0.8275    0.0000 C   0  0
    2.1446   -0.4139    0.0000 C   0  0
    1.4293   -0.8252    0.0000 N   0  0
    1.4281   -1.6503    0.0000 C   0  0
    2.1419   -2.0639    0.0000 C   0  0
    0.7145   -0.4125    0.0000 C   0  0
    0.7145    0.4125    0.0000 C   0  0
    0.0000    0.8250    0.0000 C   0  0
   -0.7145    0.4125    0.0000 C   0  0
   -1.4290    0.8250    0.0000 C   0  0
   -2.1435    0.4125    0.0000 C   0  0
   -2.8592    0.8238    0.0000 N   0  0
   -3.5735    0.4100    0.0000 C   0  0
   -3.5723   -0.2500    0.0000 O   0  0
   -4.2892    0.8213    0.0000 C   0  0
   -5.0707    0.7961    0.0000 C   0  0
   -4.6582    1.5106    0.0000 C   0  0
   -2.1435   -0.4125    0.0000 N   0  0
   -1.4290   -0.8250    0.0000 C   0  0
   -0.7145   -0.4125    0.0000 C   0  0
    0.0000   -0.8250    0.0000 C   0  0
   -2.8602    1.3738    0.0000 H   0  0
    3.5688   -2.6179    0.0000 H   0  0
  1  2  1  0
  1 25  1  0
  2  3  1  0
  3  4  1  0
  4  5  1  0
  5  6  1  0
  5  8  1  0
  6  7  1  0
  7  2  1  0
  8  9  2  0
  9 10  1  0
 10 11  2  0
 11 12  1  0
 12 13  2  0
 13 14  1  0
 13 20  1  0
 14 15  1  0
 14 24  1  0
 15 16  2  0
 15 17  1  0
 17 18  1  0
 18 19  1  0
 19 17  1  0
 20 21  2  0
 21 22  1  0
 22 11  1  0
 22 23  2  0
 23  8  1  0
M  END
> <CMPD_CHEMBLID>
CHEMBL3685038

> <STANDARD_TYPE>
Ki

> <RELATION>
=

> <STANDARD_VALUE>
3

> <STANDARD_UNITS>
nM

> <Molecular_Weight>
311.37824

$$$$

  SciTegic11272012012D

 28 31  0  0  0  0            999 V2000
    2.1455    0.2461    0.0000 C   0  0
    2.1445   -0.4139    0.0000 C   0  0
    2.8583   -0.8275    0.0000 C   0  0
    2.8570   -1.6525    0.0000 C   0  0
    2.1419   -2.0639    0.0000 C   0  0
    2.1408   -2.7239    0.0000 F   0  0
    1.4281   -1.6502    0.0000 C   0  0
    1.4293   -0.8252    0.0000 C   0  0
    0.7144   -0.4125    0.0000 C   0  0
    0.7144    0.4125    0.0000 C   0  0
    0.0000    0.8250    0.0000 C   0  0
   -0.7144    0.4125    0.0000 C   0  0
   -1.4290    0.8250    0.0000 C   0  0
   -2.1434    0.4125    0.0000 C   0  0
   -2.8591    0.8237    0.0000 N   0  0
   -3.5734    0.4100    0.0000 C   0  0
   -3.5722   -0.2500    0.0000 O   0  0
   -4.2891    0.8213    0.0000 C   0  0
   -5.0036    0.4088    0.0000 C   0  0
   -5.7181    0.8213    0.0000 C   0  0
   -5.7181    1.6463    0.0000 O   0  0
   -5.0037    2.0588    0.0000 C   0  0
   -4.2892    1.6463    0.0000 C   0  0
   -2.1434   -0.4125    0.0000 N   0  0
   -1.4290   -0.8250    0.0000 C   0  0
   -0.7144   -0.4125    0.0000 C   0  0
    0.0000   -0.8250    0.0000 C   0  0
   -2.8601    1.3737    0.0000 H   0  0
  1  2  1  0
  2  3  2  0
  3  4  1  0
  4  5  2  0
  5  6  1  0
  5  7  1  0
  7  8  2  0
  8  2  1  0
  8  9  1  0
  9 10  2  0
 10 11  1  0
 11 12  2  0
 12 13  1  0
 13 14  2  0
 14 15  1  0
 14 24  1  0
 15 16  1  0
 15 28  1  0
 16 17  2  0
 16 18  1  0
 18 19  1  0
 19 20  1  0
 20 21  1  0
 21 22  1  0
 22 23  1  0
 23 18  1  0
 24 25  2  0
 25 26  1  0
 26 12  1  0
 26 27  2  0
 27  9  1  0
M  END
> <CMPD_CHEMBLID>
CHEMBL3685030

> <STANDARD_TYPE>
Ki

> <RELATION>
=

> <STANDARD_VALUE>
3

> <STANDARD_UNITS>
nM

> <Molecular_Weight>
364.41274

$$$$

  SciTegic11272012012D

 25 28  0  0  0  0            999 V2000
    2.1409   -2.7239    0.0000 C   0  0
    2.1419   -2.0639    0.0000 C   0  0
    2.8570   -1.6525    0.0000 C   0  0
    2.8583   -0.8275    0.0000 N   0  0
    2.1445   -0.4139    0.0000 C   0  0
    2.1456    0.2461    0.0000 C   0  0
    1.4293   -0.8252    0.0000 C   0  0
    1.4281   -1.6502    0.0000 C   0  0
    0.7145   -0.4125    0.0000 C   0  0
    0.7145    0.4125    0.0000 C   0  0
    0.0000    0.8250    0.0000 C   0  0
   -0.7145    0.4125    0.0000 C   0  0
   -1.4290    0.8250    0.0000 C   0  0
   -2.1434    0.4125    0.0000 C   0  0
   -2.8592    0.8237    0.0000 N   0  0
   -3.5735    0.4100    0.0000 C   0  0
   -3.5723   -0.2500    0.0000 O   0  0
   -4.2892    0.8213    0.0000 C   0  0
   -5.0707    0.7961    0.0000 C   0  0
   -4.6581    1.5106    0.0000 C   0  0
   -2.1434   -0.4125    0.0000 N   0  0
   -1.4290   -0.8250    0.0000 C   0  0
   -0.7145   -0.4125    0.0000 C   0  0
    0.0000   -0.8250    0.0000 C   0  0
   -2.8602    1.3738    0.0000 H   0  0
  1  2  1  0
  2  3  2  0
  3  4  1  0
  4  5  2  0
  5  6  1  0
  5  7  1  0
  7  8  2  0
  7  9  1  0
  8  2  1  0
  9 10  2  0
 10 11  1  0
 11 12  2  0
 12 13  1  0
 13 14  2  0
 14 15  1  0
 14 21  1  0
 15 16  1  0
 15 25  1  0
 16 17  2  0
 16 18  1  0
 18 19  1  0
 19 20  1  0
 20 18  1  0
 21 22  2  0
 22 23  1  0
 23 12  1  0
 23 24  2  0
 24  9  1  0
M  END
> <CMPD_CHEMBLID>
CHEMBL3685011

> <STANDARD_TYPE>
Ki

> <RELATION>
=

> <STANDARD_VALUE>
3

> <STANDARD_UNITS>
nM

> <Molecular_Weight>
317.38436

$$$$

  SciTegic11272012012D

 27 30  0  0  0  0            999 V2000
    2.1456    0.2461    0.0000 C   0  0
    2.1445   -0.4139    0.0000 C   0  0
    2.8583   -0.8275    0.0000 N   0  0
    2.8570   -1.6525    0.0000 C   0  0
    2.1419   -2.0639    0.0000 C   0  0
    2.1389   -2.8893    0.0000 C   0  0
    1.4227   -3.2999    0.0000 O   0  0
    1.4281   -1.6502    0.0000 C   0  0
    1.4293   -0.8252    0.0000 C   0  0
    0.7145   -0.4125    0.0000 C   0  0
    0.7145    0.4125    0.0000 C   0  0
    0.0000    0.8250    0.0000 C   0  0
   -0.7145    0.4125    0.0000 C   0  0
   -1.4290    0.8250    0.0000 C   0  0
   -2.1434    0.4125    0.0000 C   0  0
   -2.8591    0.8237    0.0000 N   0  0
   -3.5734    0.4100    0.0000 C   0  0
   -3.5723   -0.2500    0.0000 O   0  0
   -4.2891    0.8213    0.0000 C   0  0
   -5.0706    0.7961    0.0000 C   0  0
   -4.6581    1.5106    0.0000 C   0  0
   -2.1434   -0.4125    0.0000 N   0  0
   -1.4290   -0.8250    0.0000 C   0  0
   -0.7145   -0.4125    0.0000 C   0  0
    0.0000   -0.8250    0.0000 C   0  0
   -2.8601    1.3737    0.0000 H   0  0
    1.4208   -3.8499    0.0000 H   0  0
  1  2  1  0
  2  3  2  0
  3  4  1  0
  4  5  2  0
  5  6  1  0
  5  8  1  0
  6  7  1  0
  7 27  1  0
  8  9  2  0
  9  2  1  0
  9 10  1  0
 10 11  2  0
 11 12  1  0
 12 13  2  0
 13 14  1  0
 14 15  2  0
 15 16  1  0
 15 22  1  0
 16 17  1  0
 16 26  1  0
 17 18  2  0
 17 19  1  0
 19 20  1  0
 20 21  1  0
 21 19  1  0
 22 23  2  0
 23 24  1  0
 24 13  1  0
 24 25  2  0
 25 10  1  0
M  END
> <CMPD_CHEMBLID>
CHEMBL3685156

> <STANDARD_TYPE>
Ki

> <RELATION>
=

> <STANDARD_VALUE>
3

> <STANDARD_UNITS>
nM

> <Molecular_Weight>
333.38376

$$$$

  SciTegic11272012012D

 37 41  0  0  0  0            999 V2000
   -1.6849   -2.8448    0.0000 C   0  0
   -1.4810   -3.4726    0.0000 C   0  0
   -2.0332   -4.0856    0.0000 C   0  0
   -1.7784   -4.8702    0.0000 C   0  0
   -0.9714   -5.0419    0.0000 C   0  0
   -0.4193   -4.4289    0.0000 C   0  0
    0.2263   -4.5662    0.0000 C   0  0
   -0.6741   -3.6442    0.0000 C   0  0
   -0.1229   -3.0297    0.0000 C   0  0
   -0.3789   -2.2450    0.0000 C   0  0
    0.1713   -1.6316    0.0000 N   0  0
    0.9918   -1.7178    0.0000 C   0  0
    1.3273   -0.9641    0.0000 N   0  0
    0.7144   -0.4125    0.0000 C   0  0
    0.7144    0.4125    0.0000 C   0  0
    1.4285    0.8267    0.0000 N   0  0
    1.4273    1.6521    0.0000 C   0  0
    2.1403    2.0672    0.0000 C   0  0
    2.1375    2.8922    0.0000 C   0  0
    1.4216    3.3022    0.0000 C   0  0
    0.7086    2.8872    0.0000 C   0  0
    0.7114    2.0622    0.0000 C   0  0
    1.4187    4.1276    0.0000 P   0  0
    1.9889    4.4600    0.0000 O   0  0
    0.8459    4.4555    0.0000 C   0  0
    1.4161    4.7876    0.0000 C   0  0
    0.0000    0.8250    0.0000 N   0  0
   -0.7144    0.4125    0.0000 C   0  0
   -0.7144   -0.4125    0.0000 N   0  0
    0.0000   -0.8250    0.0000 C   0  0
   -1.4293    0.8252    0.0000 N   0  0
   -1.4307    1.6502    0.0000 C   0  0
   -2.1458    2.0616    0.0000 C   0  0
   -2.8596    1.6480    0.0000 O   0  0
   -2.8583    0.8230    0.0000 C   0  0
   -2.1432    0.4116    0.0000 C   0  0
    1.9053    0.5525    0.0000 H   0  0
  1  2  1  0
  2  3  2  0
  3  4  1  0
  4  5  2  0
  5  6  1  0
  6  7  1  0
  6  8  2  0
  8  2  1  0
  8  9  1  0
  9 10  2  0
 10 11  1  0
 11 12  1  0
 12 13  2  0
 13 14  1  0
 14 15  2  0
 15 16  1  0
 15 27  1  0
 16 17  1  0
 16 37  1  0
 17 18  2  0
 18 19  1  0
 19 20  2  0
 20 21  1  0
 20 23  1  0
 21 22  2  0
 22 17  1  0
 23 24  2  0
 23 25  1  0
 23 26  1  0
 27 28  2  0
 28 29  1  0
 28 31  1  0
 29 30  2  0
 30 11  1  0
 30 14  1  0
 31 32  1  0
 32 33  1  0
 33 34  1  0
 34 35  1  0
 35 36  1  0
 36 31  1  0
M  END
> <CMPD_CHEMBLID>
CHEMBL454358

> <STANDARD_TYPE>
IC50

> <RELATION>
=

> <STANDARD_VALUE>
3.02

> <STANDARD_UNITS>
nM

> <Molecular_Weight>
502.5478

$$$$

  SciTegic11272012012D

 40 44  0  0  0  0            999 V2000
    1.4302   -0.8237    0.0000 N   0  0
    0.7144   -0.4125    0.0000 C   0  0
    0.7144    0.4125    0.0000 N   0  0
    0.0000    0.8250    0.0000 C   0  0
   -0.7144    0.4125    0.0000 C   0  0
   -1.4293    0.8252    0.0000 C   0  0
   -1.5064    1.6395    0.0000 C   0  0
   -2.3137    1.8098    0.0000 N   0  0
   -2.7250    1.0947    0.0000 N   0  0
   -3.5442    1.0055    0.0000 C   0  0
   -3.8777    0.2504    0.0000 C   0  0
   -4.6983    0.1611    0.0000 O   0  0
   -2.1720    0.4825    0.0000 C   0  0
   -0.7144   -0.4125    0.0000 C   0  0
   -1.3273   -0.9641    0.0000 S   0  0
   -0.9918   -1.7178    0.0000 C   0  0
   -0.1713   -1.6316    0.0000 C   0  0
    0.3811   -2.2449    0.0000 C   0  0
    0.1862   -3.0437    0.0000 C   0  0
    0.7828   -3.6135    0.0000 C   0  0
    1.5746   -3.3816    0.0000 C   0  0
    2.1728   -3.9505    0.0000 N   0  0
    2.9646   -3.7174    0.0000 C   0  0
    3.1195   -3.0758    0.0000 O   0  0
    3.5628   -4.2862    0.0000 N   0  0
    4.3546   -4.0530    0.0000 C   0  0
    4.9533   -4.6207    0.0000 C   0  0
    5.7442   -4.3861    0.0000 C   0  0
    5.9365   -3.5838    0.0000 C   0  0
    5.3379   -3.0162    0.0000 C   0  0
    5.4917   -2.3743    0.0000 F   0  0
    4.5469   -3.2508    0.0000 C   0  0
    1.7697   -2.5800    0.0000 C   0  0
    1.1730   -2.0103    0.0000 C   0  0
    0.0000   -0.8250    0.0000 C   0  0
    3.4336   -4.8208    0.0000 H   0  0
    2.0436   -4.4851    0.0000 H   0  0
   -4.9204   -0.3420    0.0000 H   0  0
    1.9061   -0.5481    0.0000 H   0  0
    1.4311   -1.3737    0.0000 H   0  0
  1  2  1  0
  1 39  1  0
  1 40  1  0
  2  3  2  0
  3  4  1  0
  4  5  2  0
  5  6  1  0
  5 14  1  0
  6  7  1  0
  7  8  2  0
  8  9  1  0
  9 10  1  0
  9 13  1  0
 10 11  1  0
 11 12  1  0
 12 38  1  0
 13  6  2  0
 14 15  1  0
 15 16  1  0
 16 17  2  0
 17 18  1  0
 17 35  1  0
 18 19  2  0
 19 20  1  0
 20 21  2  0
 21 22  1  0
 21 33  1  0
 22 23  1  0
 22 37  1  0
 23 24  2  0
 23 25  1  0
 25 26  1  0
 25 36  1  0
 26 27  2  0
 27 28  1  0
 28 29  2  0
 29 30  1  0
 30 31  1  0
 30 32  2  0
 32 26  1  0
 33 34  2  0
 34 18  1  0
 35  2  1  0
 35 14  2  0
M  END
> <CMPD_CHEMBLID>
CHEMBL1980297

> <STANDARD_TYPE>
Ki

> <RELATION>
=

> <STANDARD_VALUE>
3.16

> <STANDARD_UNITS>
nM

> <Molecular_Weight>
488.53664

$$$$

  SciTegic11272012012D

 30 33  0  0  0  0            999 V2000
    4.1437   -1.7478    0.0000 C   0  0
    3.5703   -2.0746    0.0000 N   0  0
    2.8575   -1.6584    0.0000 C   0  0
    2.8609   -0.9984    0.0000 O   0  0
    2.1403   -2.0672    0.0000 C   0  0
    2.1375   -2.8922    0.0000 C   0  0
    1.4216   -3.3022    0.0000 C   0  0
    0.7086   -2.8872    0.0000 C   0  0
    0.7114   -2.0622    0.0000 C   0  0
    1.4273   -1.6521    0.0000 C   0  0
    1.4285   -0.8267    0.0000 S   0  0
    0.7144   -0.4125    0.0000 C   0  0
    0.7144    0.4125    0.0000 C   0  0
    0.0000    0.8250    0.0000 C   0  0
   -0.7144    0.4125    0.0000 C   0  0
   -1.4986    0.6674    0.0000 C   0  0
   -1.7548    1.4507    0.0000 C   0  0
   -2.5624    1.6213    0.0000 C   0  0
   -2.8189    2.4059    0.0000 C   0  0
   -3.6259    2.5775    0.0000 C   0  0
   -3.8807    3.3622    0.0000 C   0  0
   -3.3286    3.9752    0.0000 C   0  0
   -2.5216    3.8036    0.0000 C   0  0
   -2.2668    3.0189    0.0000 N   0  0
   -1.9836    0.0000    0.0000 N   0  0
   -1.4986   -0.6674    0.0000 N   0  0
   -0.7144   -0.4125    0.0000 C   0  0
    0.0000   -0.8250    0.0000 C   0  0
   -1.6685   -1.1905    0.0000 H   0  0
    3.5675   -2.6246    0.0000 H   0  0
  1  2  1  0
  2  3  1  0
  2 30  1  0
  3  4  2  0
  3  5  1  0
  5  6  2  0
  6  7  1  0
  7  8  2  0
  8  9  1  0
  9 10  2  0
 10  5  1  0
 10 11  1  0
 11 12  1  0
 12 13  2  0
 13 14  1  0
 14 15  2  0
 15 16  1  0
 16 17  1  0
 16 25  2  0
 17 18  2  0
 18 19  1  0
 19 20  2  0
 20 21  1  0
 21 22  2  0
 22 23  1  0
 23 24  2  0
 24 19  1  0
 25 26  1  0
 26 27  1  0
 26 29  1  0
 27 15  1  0
 27 28  2  0
 28 12  1  0
M  END
> <CMPD_CHEMBLID>
CHEMBL1988437

> <STANDARD_TYPE>
Ki

> <RELATION>
=

> <STANDARD_VALUE>
3.16

> <STANDARD_UNITS>
nM

> <Molecular_Weight>
386.46952

$$$$

  SciTegic11272012012D

 43 47  0  0  0  0            999 V2000
   -6.8804   -2.7055    0.0000 C   0  0
   -6.7274   -3.3476    0.0000 O   0  0
   -5.9365   -3.5839    0.0000 C   0  0
   -5.7442   -4.3862    0.0000 C   0  0
   -4.9533   -4.6208    0.0000 C   0  0
   -4.3546   -4.0531    0.0000 C   0  0
   -3.5627   -4.2862    0.0000 N   0  0
   -2.9646   -3.7174    0.0000 C   0  0
   -3.1195   -3.0758    0.0000 O   0  0
   -2.1727   -3.9505    0.0000 N   0  0
   -1.5745   -3.3817    0.0000 C   0  0
   -0.7828   -3.6135    0.0000 C   0  0
   -0.1861   -3.0437    0.0000 C   0  0
   -0.3810   -2.2449    0.0000 C   0  0
   -1.1730   -2.0103    0.0000 C   0  0
   -1.7696   -2.5800    0.0000 C   0  0
    0.1713   -1.6316    0.0000 C   0  0
    0.9918   -1.7178    0.0000 C   0  0
    1.3273   -0.9641    0.0000 S   0  0
    0.7144   -0.4125    0.0000 C   0  0
    0.7144    0.4125    0.0000 C   0  0
    0.0000    0.8250    0.0000 C   0  0
   -0.7144    0.4125    0.0000 N   0  0
   -0.7144   -0.4125    0.0000 C   0  0
   -1.4302   -0.8238    0.0000 N   0  0
    0.0000   -0.8250    0.0000 C   0  0
    1.4293    0.8252    0.0000 C   0  0
    2.1731    0.4848    0.0000 C   0  0
    2.7241    1.0988    0.0000 N   0  0
    2.3105    1.8126    0.0000 N   0  0
    2.6429    2.5666    0.0000 C   0  0
    2.1557    3.2329    0.0000 C   0  0
    1.4996    3.1618    0.0000 C   0  0
    1.8892    2.6292    0.0000 C   0  0
    2.4887    3.9883    0.0000 O   0  0
    1.5038    1.6398    0.0000 C   0  0
   -4.5469   -3.2508    0.0000 C   0  0
   -5.3379   -3.0162    0.0000 C   0  0
    2.1641    4.4323    0.0000 H   0  0
   -1.9061   -0.5481    0.0000 H   0  0
   -1.4312   -1.3738    0.0000 H   0  0
   -2.0436   -4.4851    0.0000 H   0  0
   -3.4336   -4.8208    0.0000 H   0  0
  1  2  1  0
  2  3  1  0
  3  4  2  0
  4  5  1  0
  5  6  2  0
  6  7  1  0
  6 37  1  0
  7  8  1  0
  7 43  1  0
  8  9  2  0
  8 10  1  0
 10 11  1  0
 10 42  1  0
 11 12  2  0
 12 13  1  0
 13 14  2  0
 14 15  1  0
 14 17  1  0
 15 16  2  0
 16 11  1  0
 17 18  2  0
 18 19  1  0
 19 20  1  0
 20 21  2  0
 21 22  1  0
 21 27  1  0
 22 23  2  0
 23 24  1  0
 24 25  1  0
 24 26  2  0
 25 40  1  0
 25 41  1  0
 26 17  1  0
 26 20  1  0
 27 28  1  0
 28 29  2  0
 29 30  1  0
 30 31  1  0
 30 36  1  0
 31 32  1  0
 32 33  1  0
 32 34  1  0
 32 35  1  0
 35 39  1  0
 36 27  2  0
 37 38  2  0
 38  3  1  0
M  END
> <CMPD_CHEMBLID>
CHEMBL2004290

> <STANDARD_TYPE>
Ki

> <RELATION>
=

> <STANDARD_VALUE>
3.16

> <STANDARD_UNITS>
nM

> <Molecular_Weight>
528.62532

$$$$

  SciTegic11272012012D

 41 45  0  0  0  0            999 V2000
    1.2861   -0.7425    0.0000 C   0  0
    0.7144   -0.4125    0.0000 C   0  0
    0.7144    0.4125    0.0000 C   0  0
    0.0000    0.8250    0.0000 C   0  0
   -0.7144    0.4125    0.0000 C   0  0
   -0.7144   -0.4125    0.0000 C   0  0
   -1.4290   -0.8250    0.0000 N   0  0
   -1.4290   -1.6500    0.0000 N   0  0
   -0.7144   -2.0625    0.0000 C   0  0
   -0.7127   -2.8879    0.0000 N   0  0
    0.0027   -3.2997    0.0000 C   0  0
    0.0056   -4.1247    0.0000 C   0  0
    0.7215   -4.5347    0.0000 C   0  0
    1.4345   -4.1197    0.0000 C   0  0
    1.4317   -3.2947    0.0000 C   0  0
    0.7158   -2.8847    0.0000 C   0  0
    2.1508   -4.5300    0.0000 S   0  0
    2.7211   -4.1978    0.0000 O   0  0
    2.7237   -4.8577    0.0000 O   0  0
    2.1542   -5.3554    0.0000 N   0  0
    2.8705   -5.7656    0.0000 C   0  0
    2.8739   -6.5911    0.0000 C   0  0
    3.5902   -7.0014    0.0000 N   0  0
    3.6705   -7.8154    0.0000 C   0  0
    4.4784   -7.9825    0.0000 C   0  0
    4.8870   -7.2657    0.0000 C   0  0
    4.3315   -6.6557    0.0000 C   0  0
    0.0000   -1.6500    0.0000 N   0  0
    0.0000   -0.8250    0.0000 C   0  0
    0.0000    1.6504    0.0000 C   0  0
    0.7138    2.0641    0.0000 C   0  0
    1.2859    1.7350    0.0000 F   0  0
    0.7125    2.8891    0.0000 C   0  0
   -0.0026    3.3005    0.0000 C   0  0
   -0.7164    2.8868    0.0000 C   0  0
   -1.4311    3.2999    0.0000 O   0  0
   -0.7151    2.0618    0.0000 C   0  0
   -1.2862    1.7310    0.0000 F   0  0
   -1.4312    3.8499    0.0000 H   0  0
    1.6789   -5.6322    0.0000 H   0  0
   -1.1886   -3.1638    0.0000 H   0  0
  1  2  1  0
  2  3  2  0
  3  4  1  0
  4  5  2  0
  4 30  1  0
  5  6  1  0
  6  7  2  0
  7  8  1  0
  8  9  2  0
  9 10  1  0
  9 28  1  0
 10 11  1  0
 10 41  1  0
 11 12  2  0
 12 13  1  0
 13 14  2  0
 14 15  1  0
 14 17  1  0
 15 16  2  0
 16 11  1  0
 17 18  2  0
 17 19  2  0
 17 20  1  0
 20 21  1  0
 20 40  1  0
 21 22  1  0
 22 23  1  0
 23 24  1  0
 24 25  1  0
 25 26  1  0
 26 27  1  0
 27 23  1  0
 28 29  2  0
 29  2  1  0
 29  6  1  0
 30 31  2  0
 31 32  1  0
 31 33  1  0
 33 34  2  0
 34 35  1  0
 35 36  1  0
 35 37  2  0
 36 39  1  0
 37 30  1  0
 37 38  1  0
M  END
> <CMPD_CHEMBLID>
CHEMBL440963

> <STANDARD_TYPE>
Ki

> <RELATION>
=

> <STANDARD_VALUE>
3.4

> <STANDARD_UNITS>
nM

> <Molecular_Weight>
540.58485

$$$$

  SciTegic11272012012D

 31 33  0  0  0  0            999 V2000
    2.1404   -2.7264    0.0000 C   0  0
    2.1413   -2.0663    0.0000 C   0  0
    2.7135   -1.7373    0.0000 C   0  0
    1.4273   -1.6521    0.0000 C   0  0
    0.8551   -1.9812    0.0000 O   0  0
    1.4285   -0.8267    0.0000 N   0  0
    0.7144   -0.4125    0.0000 C   0  0
    0.7144    0.4125    0.0000 C   0  0
    0.0000    0.8250    0.0000 C   0  0
    0.0000    1.6500    0.0000 C   0  0
   -0.7145    2.0625    0.0000 C   0  0
   -1.4290    1.6500    0.0000 C   0  0
   -1.4290    0.8250    0.0000 C   0  0
   -0.7144    0.4125    0.0000 C   0  0
   -0.7144   -0.4125    0.0000 C   0  0
    0.0000   -0.8250    0.0000 N   0  0
   -2.1438    2.0627    0.0000 C   0  0
   -2.8576    1.6491    0.0000 C   0  0
   -3.5728    2.0605    0.0000 N   0  0
   -3.5741    2.8855    0.0000 C   0  0
   -2.8603    3.2991    0.0000 C   0  0
   -2.1452    2.8877    0.0000 C   0  0
   -1.5741    3.2187    0.0000 C   0  0
   -4.2888    3.2985    0.0000 C   0  0
   -5.0029    2.8844    0.0000 O   0  0
   -4.2889    4.1240    0.0000 C   0  0
   -4.8603    4.4542    0.0000 F   0  0
   -4.2887    4.7840    0.0000 F   0  0
   -3.7173    4.4539    0.0000 F   0  0
   -5.0021    2.3344    0.0000 H   0  0
    1.9053   -0.5525    0.0000 H   0  0
  1  2  1  0
  2  3  1  0
  2  4  1  0
  4  5  2  0
  4  6  1  0
  6  7  1  0
  6 31  1  0
  7  8  2  0
  8  9  1  0
  9 10  2  0
 10 11  1  0
 11 12  2  0
 12 13  1  0
 12 17  1  0
 13 14  2  0
 14  9  1  0
 14 15  1  0
 15 16  2  0
 16  7  1  0
 17 18  2  0
 18 19  1  0
 19 20  2  0
 20 21  1  0
 20 24  1  0
 21 22  2  0
 22 17  1  0
 22 23  1  0
 24 25  1  0
 24 26  1  0
 25 30  1  0
 26 27  1  0
 26 28  1  0
 26 29  1  0
M  END
> <CMPD_CHEMBLID>
CHEMBL3689733

> <STANDARD_TYPE>
Ki

> <RELATION>
=

> <STANDARD_VALUE>
3.46

> <STANDARD_UNITS>
nM

> <Molecular_Weight>
403.39761

$$$$

  SciTegic11272012012D

 44 48  0  0  0  0            999 V2000
    6.9883   -5.7120    0.0000 C   0  0
    6.4174   -5.3808    0.0000 C   0  0
    5.7014   -5.7916    0.0000 N   0  0
    5.6978   -6.6171    0.0000 C   0  0
    5.1250   -6.9449    0.0000 C   0  0
    4.9874   -5.3774    0.0000 C   0  0
    4.2715   -5.7883    0.0000 C   0  0
    3.5574   -5.3741    0.0000 N   0  0
    2.8413   -5.7837    0.0000 C   0  0
    2.1285   -5.3682    0.0000 C   0  0
    2.1319   -4.5432    0.0000 C   0  0
    2.8480   -4.1337    0.0000 C   0  0
    3.5608   -4.5491    0.0000 C   0  0
    1.4187   -4.1276    0.0000 S   0  0
    0.8459   -4.4555    0.0000 O   0  0
    1.4161   -4.7876    0.0000 O   0  0
    1.4216   -3.3022    0.0000 C   0  0
    2.1375   -2.8922    0.0000 C   0  0
    2.1403   -2.0672    0.0000 C   0  0
    1.4273   -1.6521    0.0000 C   0  0
    1.4285   -0.8267    0.0000 N   0  0
    0.7144   -0.4125    0.0000 C   0  0
    0.7144    0.4125    0.0000 N   0  0
    0.0000    0.8250    0.0000 N   0  0
   -0.7144    0.4125    0.0000 C   0  0
   -1.4289    0.8250    0.0000 C   0  0
   -2.1434    0.4125    0.0000 C   0  0
   -2.1434   -0.4125    0.0000 C   0  0
   -1.4289   -0.8250    0.0000 C   0  0
   -1.4289   -1.4850    0.0000 C   0  0
   -0.7144   -0.4125    0.0000 C   0  0
    0.0000   -0.8250    0.0000 N   0  0
   -2.8582    0.8252    0.0000 C   0  0
   -3.5721    0.4116    0.0000 C   0  0
   -4.2872    0.8230    0.0000 C   0  0
   -5.0023    0.4106    0.0000 O   0  0
   -4.2885    1.6480    0.0000 C   0  0
   -3.5747    2.0616    0.0000 C   0  0
   -2.8596    1.6502    0.0000 C   0  0
   -2.2885    1.9811    0.0000 Cl  0  0
    0.7114   -2.0622    0.0000 C   0  0
    0.7086   -2.8872    0.0000 C   0  0
   -5.4786    0.6855    0.0000 H   0  0
    1.9053   -0.5525    0.0000 H   0  0
  1  2  1  0
  2  3  1  0
  3  4  1  0
  3  6  1  0
  4  5  1  0
  6  7  1  0
  7  8  1  0
  8  9  1  0
  9 10  1  0
 10 11  1  0
 11 12  1  0
 11 14  1  0
 12 13  1  0
 13  8  1  0
 14 15  2  0
 14 16  2  0
 14 17  1  0
 17 18  2  0
 18 19  1  0
 19 20  2  0
 20 21  1  0
 20 41  1  0
 21 22  1  0
 21 44  1  0
 22 23  2  0
 23 24  1  0
 24 25  2  0
 25 26  1  0
 26 27  2  0
 27 28  1  0
 27 33  1  0
 28 29  2  0
 29 30  1  0
 29 31  1  0
 31 25  1  0
 31 32  2  0
 32 22  1  0
 33 34  2  0
 34 35  1  0
 35 36  1  0
 35 37  2  0
 36 43  1  0
 37 38  1  0
 38 39  2  0
 39 33  1  0
 39 40  1  0
 41 42  2  0
 42 17  1  0
M  END
> <CMPD_CHEMBLID>
CHEMBL398845

> <STANDARD_TYPE>
Ki

> <RELATION>
=

> <STANDARD_VALUE>
3.5

> <STANDARD_UNITS>
nM

> <Molecular_Weight>
609.18188

$$$$

  SciTegic11272012012D

 38 42  0  0  0  0            999 V2000
    1.2861   -0.7425    0.0000 C   0  0
    0.7144   -0.4125    0.0000 C   0  0
    0.7144    0.4125    0.0000 C   0  0
    0.0000    0.8250    0.0000 C   0  0
   -0.7144    0.4125    0.0000 C   0  0
   -0.7144   -0.4125    0.0000 C   0  0
   -1.4290   -0.8250    0.0000 N   0  0
   -1.4290   -1.6500    0.0000 N   0  0
   -0.7144   -2.0625    0.0000 C   0  0
   -0.7127   -2.8879    0.0000 N   0  0
    0.0027   -3.2997    0.0000 C   0  0
    0.0056   -4.1247    0.0000 C   0  0
    0.7215   -4.5347    0.0000 C   0  0
    1.4345   -4.1197    0.0000 C   0  0
    1.4317   -3.2947    0.0000 C   0  0
    0.7158   -2.8847    0.0000 C   0  0
    2.1508   -4.5300    0.0000 S   0  0
    2.7211   -4.1978    0.0000 O   0  0
    2.1484   -3.8700    0.0000 O   0  0
    2.1542   -5.3554    0.0000 C   0  0
    1.4414   -5.7709    0.0000 C   0  0
    1.4448   -6.5958    0.0000 C   0  0
    2.1609   -7.0054    0.0000 N   0  0
    2.8737   -6.5900    0.0000 C   0  0
    2.8703   -5.7650    0.0000 C   0  0
    0.0000   -1.6500    0.0000 N   0  0
    0.0000   -0.8250    0.0000 C   0  0
    0.0000    1.6504    0.0000 C   0  0
   -0.7151    2.0618    0.0000 C   0  0
   -0.7164    2.8868    0.0000 C   0  0
   -1.4311    3.2999    0.0000 O   0  0
   -0.0026    3.3005    0.0000 C   0  0
    0.7125    2.8891    0.0000 C   0  0
    0.7138    2.0641    0.0000 C   0  0
    1.2859    1.7350    0.0000 Cl  0  0
   -1.4312    3.8499    0.0000 H   0  0
    2.1632   -7.5554    0.0000 H   0  0
   -1.1886   -3.1638    0.0000 H   0  0
  1  2  1  0
  2  3  2  0
  3  4  1  0
  4  5  2  0
  4 28  1  0
  5  6  1  0
  6  7  2  0
  7  8  1  0
  8  9  2  0
  9 10  1  0
  9 26  1  0
 10 11  1  0
 10 38  1  0
 11 12  2  0
 12 13  1  0
 13 14  2  0
 14 15  1  0
 14 17  1  0
 15 16  2  0
 16 11  1  0
 17 18  2  0
 17 19  2  0
 17 20  1  0
 20 21  1  0
 21 22  1  0
 22 23  1  0
 23 24  1  0
 23 37  1  0
 24 25  1  0
 25 20  1  0
 26 27  2  0
 27  2  1  0
 27  6  1  0
 28 29  2  0
 29 30  1  0
 30 31  1  0
 30 32  2  0
 31 36  1  0
 32 33  1  0
 33 34  2  0
 34 28  1  0
 34 35  1  0
M  END
> <CMPD_CHEMBLID>
CHEMBL250625

> <STANDARD_TYPE>
Ki

> <RELATION>
=

> <STANDARD_VALUE>
3.5

> <STANDARD_UNITS>
nM

> <Molecular_Weight>
510.00776

$$$$

  SciTegic11272012012D

 31 34  0  0  0  0            999 V2000
   -1.6849   -2.8448    0.0000 C   0  0
   -1.4810   -3.4726    0.0000 C   0  0
   -2.0332   -4.0856    0.0000 C   0  0
   -1.7784   -4.8702    0.0000 C   0  0
   -0.9714   -5.0419    0.0000 C   0  0
   -0.4193   -4.4289    0.0000 C   0  0
    0.2263   -4.5662    0.0000 C   0  0
   -0.6741   -3.6442    0.0000 C   0  0
   -0.1229   -3.0297    0.0000 C   0  0
   -0.3789   -2.2450    0.0000 C   0  0
    0.1713   -1.6316    0.0000 N   0  0
    0.9918   -1.7178    0.0000 C   0  0
    1.3273   -0.9641    0.0000 N   0  0
    0.7144   -0.4125    0.0000 C   0  0
    0.7144    0.4125    0.0000 C   0  0
    1.4285    0.8267    0.0000 N   0  0
    1.4273    1.6521    0.0000 C   0  0
    2.1403    2.0672    0.0000 C   0  0
    2.1375    2.8922    0.0000 C   0  0
    1.4216    3.3022    0.0000 C   0  0
    0.7086    2.8872    0.0000 C   0  0
    0.7114    2.0622    0.0000 C   0  0
    1.4187    4.1276    0.0000 P   0  0
    1.9889    4.4600    0.0000 O   0  0
    0.8459    4.4555    0.0000 C   0  0
    1.4161    4.7876    0.0000 C   0  0
    0.0000    0.8250    0.0000 N   0  0
   -0.7144    0.4125    0.0000 C   0  0
   -0.7144   -0.4125    0.0000 N   0  0
    0.0000   -0.8250    0.0000 C   0  0
    1.9053    0.5525    0.0000 H   0  0
  1  2  1  0
  2  3  2  0
  3  4  1  0
  4  5  2  0
  5  6  1  0
  6  7  1  0
  6  8  2  0
  8  2  1  0
  8  9  1  0
  9 10  2  0
 10 11  1  0
 11 12  1  0
 12 13  2  0
 13 14  1  0
 14 15  2  0
 15 16  1  0
 15 27  1  0
 16 17  1  0
 16 31  1  0
 17 18  2  0
 18 19  1  0
 19 20  2  0
 20 21  1  0
 20 23  1  0
 21 22  2  0
 22 17  1  0
 23 24  2  0
 23 25  1  0
 23 26  1  0
 27 28  2  0
 28 29  1  0
 29 30  2  0
 30 11  1  0
 30 14  1  0
M  END
> <CMPD_CHEMBLID>
CHEMBL488840

> <STANDARD_TYPE>
IC50

> <RELATION>
=

> <STANDARD_VALUE>
3.58

> <STANDARD_UNITS>
nM

> <Molecular_Weight>
417.44332

$$$$

  SciTegic11272012012D

 42 45  0  0  0  0            999 V2000
    1.2861   -0.7425    0.0000 C   0  0
    0.7144   -0.4125    0.0000 N   0  0
    0.7144    0.4125    0.0000 C   0  0
    0.0000    0.8250    0.0000 C   0  0
   -0.7144    0.4125    0.0000 N   0  0
   -1.4302    0.8237    0.0000 C   0  0
   -2.1444    0.4100    0.0000 C   0  0
   -2.1416   -0.4150    0.0000 C   0  0
   -2.8546   -0.8300    0.0000 C   0  0
   -3.5706   -0.4200    0.0000 C   0  0
   -4.2849   -0.8337    0.0000 N   0  0
   -5.0006   -0.4225    0.0000 C   0  0
   -5.0017    0.2375    0.0000 O   0  0
   -5.7149   -0.8362    0.0000 C   0  0
   -6.4307   -0.4261    0.0000 C   0  0
   -7.1438   -0.8411    0.0000 C   0  0
   -7.1409   -1.6661    0.0000 C   0  0
   -7.7114   -1.9980    0.0000 C   0  0
   -6.4251   -2.0761    0.0000 C   0  0
   -5.7120   -1.6612    0.0000 C   0  0
   -6.4223   -2.9016    0.0000 C   0  0
   -6.4194   -3.7270    0.0000 C   0  0
   -6.4166   -4.5524    0.0000 C   0  0
   -7.0824   -5.0276    0.0000 C   0  0
   -6.8247   -5.8113    0.0000 N   0  0
   -5.9997   -5.8085    0.0000 C   0  0
   -5.5145   -6.4745    0.0000 C   0  0
   -4.8582   -6.4044    0.0000 O   0  0
   -5.8487   -7.2293    0.0000 N   0  0
   -5.7475   -5.0230    0.0000 N   0  0
   -5.1218   -4.8132    0.0000 C   0  0
   -3.5734    0.4050    0.0000 C   0  0
   -2.8604    0.8200    0.0000 C   0  0
   -2.8633    1.6454    0.0000 C   0  0
   -3.4358    1.9738    0.0000 F   0  0
   -2.2927    1.9772    0.0000 F   0  0
   -2.8653    2.3054    0.0000 F   0  0
   -0.7144   -0.4125    0.0000 C   0  0
    0.0000   -0.8250    0.0000 C   0  0
   -5.5248   -7.6738    0.0000 H   0  0
   -6.3956   -7.2877    0.0000 H   0  0
   -4.2839   -1.3837    0.0000 H   0  0
  1  2  1  0
  2  3  1  0
  3  4  1  0
  4  5  1  0
  5  6  1  0
  5 38  1  0
  6  7  1  0
  7  8  2  0
  8  9  1  0
  9 10  2  0
 10 11  1  0
 10 32  1  0
 11 12  1  0
 11 42  1  0
 12 13  2  0
 12 14  1  0
 14 15  2  0
 15 16  1  0
 16 17  2  0
 17 18  1  0
 17 19  1  0
 19 20  2  0
 19 21  1  0
 20 14  1  0
 21 22  3  0
 22 23  1  0
 23 24  2  0
 24 25  1  0
 25 26  2  0
 26 27  1  0
 26 30  1  0
 27 28  2  0
 27 29  1  0
 29 40  1  0
 29 41  1  0
 30 23  1  0
 30 31  1  0
 32 33  2  0
 33  7  1  0
 33 34  1  0
 34 35  1  0
 34 36  1  0
 34 37  1  0
 38 39  1  0
 39  2  1  0
M  END
> <CMPD_CHEMBLID>
CHEMBL1784634

> <STANDARD_TYPE>
IC50

> <RELATION>
=

> <STANDARD_VALUE>
3.6

> <STANDARD_UNITS>
nM

> <Molecular_Weight>
538.56407

$$$$

  SciTegic11272012012D

 37 41  0  0  0  0            999 V2000
   -1.3083   -5.6780    0.0000 C   0  0
   -0.7345   -5.3520    0.0000 N   0  0
   -0.0229   -5.7694    0.0000 C   0  0
    0.6944   -5.3618    0.0000 C   0  0
    0.7002   -4.5369    0.0000 N   0  0
   -0.0115   -4.1194    0.0000 C   0  0
   -0.7287   -4.5270    0.0000 C   0  0
    1.4171   -4.1276    0.0000 C   0  0
    1.9869   -4.4606    0.0000 O   0  0
    1.4216   -3.3022    0.0000 C   0  0
    2.1375   -2.8922    0.0000 C   0  0
    2.1403   -2.0672    0.0000 C   0  0
    1.4273   -1.6521    0.0000 C   0  0
    1.4285   -0.8267    0.0000 N   0  0
    0.7144   -0.4125    0.0000 C   0  0
    0.7144    0.4125    0.0000 N   0  0
    0.0000    0.8250    0.0000 C   0  0
   -0.7144    0.4125    0.0000 C   0  0
   -1.4289    0.8250    0.0000 C   0  0
   -2.1434    0.4125    0.0000 C   0  0
   -2.1434   -0.4125    0.0000 C   0  0
   -2.7150   -0.7425    0.0000 O   0  0
   -1.4289   -0.8250    0.0000 N   0  0
   -1.4289   -1.4850    0.0000 C   0  0
   -0.7144   -0.4125    0.0000 C   0  0
    0.0000   -0.8250    0.0000 N   0  0
   -2.8582    0.8252    0.0000 C   0  0
   -2.8596    1.6502    0.0000 C   0  0
   -2.2886    1.9811    0.0000 Cl  0  0
   -3.5747    2.0616    0.0000 C   0  0
   -4.2885    1.6480    0.0000 C   0  0
   -4.2872    0.8230    0.0000 C   0  0
   -3.5721    0.4116    0.0000 C   0  0
   -3.5711   -0.2484    0.0000 Cl  0  0
    0.7114   -2.0622    0.0000 C   0  0
    0.7086   -2.8872    0.0000 C   0  0
    1.9053   -0.5525    0.0000 H   0  0
  1  2  1  0
  2  3  1  0
  3  4  1  0
  4  5  1  0
  5  6  1  0
  5  8  1  0
  6  7  1  0
  7  2  1  0
  8  9  2  0
  8 10  1  0
 10 11  2  0
 11 12  1  0
 12 13  2  0
 13 14  1  0
 13 35  1  0
 14 15  1  0
 14 37  1  0
 15 16  2  0
 16 17  1  0
 17 18  2  0
 18 19  1  0
 19 20  2  0
 20 21  1  0
 20 27  1  0
 21 22  2  0
 21 23  1  0
 23 24  1  0
 23 25  1  0
 25 18  1  0
 25 26  2  0
 26 15  1  0
 27 28  2  0
 28 29  1  0
 28 30  1  0
 30 31  2  0
 31 32  1  0
 32 33  2  0
 33 27  1  0
 33 34  1  0
 35 36  2  0
 36 10  1  0
M  END
> <CMPD_CHEMBLID>
CHEMBL565366

> <STANDARD_TYPE>
IC50

> <RELATION>
=

> <STANDARD_VALUE>
3.6

> <STANDARD_UNITS>
nM

> <Molecular_Weight>
523.41376

$$$$

  SciTegic11272012012D

 45 48  0  0  0  0            999 V2000
    1.2861   -0.7425    0.0000 C   0  0
    0.7144   -0.4125    0.0000 C   0  0
    0.7144    0.4125    0.0000 C   0  0
    0.0000    0.8250    0.0000 C   0  0
   -0.7144    0.4125    0.0000 C   0  0
   -0.7144   -0.4125    0.0000 C   0  0
    0.0000   -0.8250    0.0000 C   0  0
    0.0000   -1.6504    0.0000 C   0  0
    0.0000   -2.4759    0.0000 C   0  0
    0.0000   -3.3014    0.0000 C   0  0
   -0.6674   -3.7742    0.0000 C   0  0
   -0.4125   -4.5588    0.0000 N   0  0
    0.4125   -4.5588    0.0000 C   0  0
    0.8955   -5.2265    0.0000 C   0  0
    1.5520   -5.1587    0.0000 O   0  0
    0.5586   -5.9801    0.0000 N   0  0
    0.6674   -3.7742    0.0000 N   0  0
    1.2939   -3.5665    0.0000 C   0  0
   -1.4302    0.8237    0.0000 C   0  0
   -1.4313    1.4837    0.0000 O   0  0
   -2.1444    0.4100    0.0000 N   0  0
   -2.8602    0.8213    0.0000 C   0  0
   -3.5747    0.4088    0.0000 C   0  0
   -4.2892    0.8213    0.0000 C   0  0
   -4.2892    1.6463    0.0000 C   0  0
   -5.0049    2.0575    0.0000 C   0  0
   -5.7192    1.6437    0.0000 N   0  0
   -6.4351    2.0537    0.0000 C   0  0
   -7.1481    1.6387    0.0000 C   0  0
   -7.1453    0.8137    0.0000 N   0  0
   -7.8579    0.3970    0.0000 C   0  0
   -7.8538   -0.4284    0.0000 C   0  0
   -8.5664   -0.8451    0.0000 O   0  0
   -6.4294    0.4037    0.0000 C   0  0
   -5.7163    0.8187    0.0000 C   0  0
   -3.5747    2.0588    0.0000 C   0  0
   -2.8602    1.6463    0.0000 C   0  0
   -3.5747    2.8842    0.0000 C   0  0
   -4.1461    3.2146    0.0000 F   0  0
   -3.0031    3.2140    0.0000 F   0  0
   -3.5744    3.5442    0.0000 F   0  0
   -8.5637   -1.3951    0.0000 H   0  0
   -2.1435   -0.1400    0.0000 H   0  0
    0.8810   -6.4258    0.0000 H   0  0
    0.0116   -6.0366    0.0000 H   0  0
  1  2  1  0
  2  3  2  0
  3  4  1  0
  4  5  2  0
  5  6  1  0
  5 19  1  0
  6  7  2  0
  7  2  1  0
  7  8  1  0
  8  9  3  0
  9 10  1  0
 10 11  2  0
 11 12  1  0
 12 13  2  0
 13 14  1  0
 13 17  1  0
 14 15  2  0
 14 16  1  0
 16 44  1  0
 16 45  1  0
 17 10  1  0
 17 18  1  0
 19 20  2  0
 19 21  1  0
 21 22  1  0
 21 43  1  0
 22 23  2  0
 23 24  1  0
 24 25  2  0
 25 26  1  0
 25 36  1  0
 26 27  1  0
 27 28  1  0
 28 29  1  0
 29 30  1  0
 30 31  1  0
 30 34  1  0
 31 32  1  0
 32 33  1  0
 33 42  1  0
 34 35  1  0
 35 27  1  0
 36 37  2  0
 36 38  1  0
 37 22  1  0
 38 39  1  0
 38 40  1  0
 38 41  1  0
M  END
> <CMPD_CHEMBLID>
CHEMBL1236871

> <STANDARD_TYPE>
IC50

> <RELATION>
=

> <STANDARD_VALUE>
3.6

> <STANDARD_UNITS>
nM

> <Molecular_Weight>
568.59005

$$$$

  SciTegic11272012012D

 33 37  0  0  0  0            999 V2000
    1.3218   -2.2894    0.0000 C   0  0
    0.9918   -1.7178    0.0000 C   0  0
    1.3273   -0.9642    0.0000 C   0  0
    0.7145   -0.4125    0.0000 C   0  0
    0.7145    0.4125    0.0000 C   0  0
    0.0000    0.8250    0.0000 C   0  0
   -0.7145    0.4125    0.0000 C   0  0
   -0.7145   -0.4125    0.0000 C   0  0
    0.0000   -0.8250    0.0000 C   0  0
    0.1713   -1.6316    0.0000 N   0  0
    0.0000    1.6505    0.0000 C   0  0
   -0.6681    2.1224    0.0000 C   0  0
   -0.4143    2.9074    0.0000 S   0  0
    0.4102    2.9084    0.0000 C   0  0
    0.9614    3.5223    0.0000 C   0  0
    1.7687    3.3520    0.0000 C   0  0
    2.0247    2.5677    0.0000 N   0  0
    1.4736    1.9538    0.0000 C   0  0
    1.7314    1.1696    0.0000 N   0  0
    0.6663    2.1242    0.0000 C   0  0
    0.7052    4.3070    0.0000 C   0  0
   -0.1018    4.4787    0.0000 C   0  0
   -0.3566    5.2634    0.0000 C   0  0
    0.1956    5.8764    0.0000 C   0  0
    1.0025    5.7047    0.0000 C   0  0
    1.2574    4.9201    0.0000 C   0  0
    1.5550    6.3181    0.0000 S   0  0
    1.3515    6.9460    0.0000 O   0  0
    2.2005    6.1806    0.0000 O   0  0
    1.9969    6.8083    0.0000 C   0  0
    2.2697    1.0568    0.0000 H   0  0
    1.3647    0.7597    0.0000 H   0  0
   -0.1967   -2.0403    0.0000 H   0  0
  1  2  1  0
  2  3  2  0
  3  4  1  0
  4  5  2  0
  5  6  1  0
  6  7  2  0
  6 11  1  0
  7  8  1  0
  8  9  2  0
  9  4  1  0
  9 10  1  0
 10  2  1  0
 10 33  1  0
 11 12  2  0
 12 13  1  0
 13 14  1  0
 14 15  2  0
 15 16  1  0
 15 21  1  0
 16 17  2  0
 17 18  1  0
 18 19  1  0
 18 20  2  0
 19 31  1  0
 19 32  1  0
 20 11  1  0
 20 14  1  0
 21 22  2  0
 22 23  1  0
 23 24  2  0
 24 25  1  0
 25 26  2  0
 25 27  1  0
 26 21  1  0
 27 28  2  0
 27 29  2  0
 27 30  1  0
M  END
> <CMPD_CHEMBLID>
CHEMBL1997822

> <STANDARD_TYPE>
Ki

> <RELATION>
=

> <STANDARD_VALUE>
3.98

> <STANDARD_UNITS>
nM

> <Molecular_Weight>
433.54586

$$$$

  SciTegic11272012012D

 38 43  0  0  0  0            999 V2000
   -3.8447   -5.5443    0.0000 C   0  0
   -3.3667   -5.0893    0.0000 N   0  0
   -2.5753   -5.3224    0.0000 C   0  0
   -1.9777   -4.7536    0.0000 C   0  0
   -2.1715   -3.9517    0.0000 N   0  0
   -2.9629   -3.7186    0.0000 C   0  0
   -3.5605   -4.2874    0.0000 C   0  0
   -1.5745   -3.3816    0.0000 C   0  0
   -0.7828   -3.6135    0.0000 C   0  0
   -0.1861   -3.0437    0.0000 C   0  0
   -0.3810   -2.2449    0.0000 C   0  0
   -1.1730   -2.0103    0.0000 C   0  0
   -1.7696   -2.5800    0.0000 C   0  0
    0.1713   -1.6316    0.0000 N   0  0
    0.9917   -1.7178    0.0000 C   0  0
    1.3273   -0.9641    0.0000 C   0  0
    2.1347   -0.7924    0.0000 C   0  0
    2.7290   -1.3606    0.0000 C   0  0
    3.5208   -1.1288    0.0000 C   0  0
    3.7158   -0.3272    0.0000 C   0  0
    4.5075   -0.0936    0.0000 O   0  0
    4.7016    0.7087    0.0000 C   0  0
    5.4925    0.9434    0.0000 C   0  0
    5.6849    1.7456    0.0000 C   0  0
    5.0862    2.3133    0.0000 C   0  0
    4.2953    2.0787    0.0000 C   0  0
    4.1030    1.2765    0.0000 C   0  0
    3.1192    0.2425    0.0000 C   0  0
    2.3275    0.0107    0.0000 C   0  0
    0.7144   -0.4125    0.0000 C   0  0
    0.7144    0.4125    0.0000 C   0  0
    1.4284    0.8267    0.0000 N   0  0
    0.0000    0.8250    0.0000 N   0  0
   -0.7144    0.4125    0.0000 C   0  0
   -0.7144   -0.4125    0.0000 N   0  0
    0.0000   -0.8250    0.0000 C   0  0
    1.4277    1.3767    0.0000 H   0  0
    1.9052    0.5525    0.0000 H   0  0
  1  2  1  0
  2  3  1  0
  3  4  1  0
  4  5  1  0
  5  6  1  0
  5  8  1  0
  6  7  1  0
  7  2  1  0
  8  9  1  0
  9 10  1  0
 10 11  1  0
 11 12  1  0
 11 14  1  0
 12 13  1  0
 13  8  1  0
 14 15  1  0
 15 16  2  0
 16 17  1  0
 16 30  1  0
 17 18  2  0
 18 19  1  0
 19 20  2  0
 20 21  1  0
 20 28  1  0
 21 22  1  0
 22 23  2  0
 23 24  1  0
 24 25  2  0
 25 26  1  0
 26 27  2  0
 27 22  1  0
 28 29  2  0
 29 17  1  0
 30 31  2  0
 31 32  1  0
 31 33  1  0
 32 37  1  0
 32 38  1  0
 33 34  2  0
 34 35  1  0
 35 36  2  0
 36 14  1  0
 36 30  1  0
M  END
> <CMPD_CHEMBLID>
CHEMBL1997617

> <STANDARD_TYPE>
Ki

> <RELATION>
=

> <STANDARD_VALUE>
3.98

> <STANDARD_UNITS>
nM

> <Molecular_Weight>
482.61986

$$$$

  SciTegic11272012012D

 43 47  0  0  0  0            999 V2000
    5.2348   -2.1368    0.0000 C   0  0
    4.8485   -1.6017    0.0000 N   0  0
    4.0272   -1.6849    0.0000 C   0  0
    3.7568   -2.2870    0.0000 O   0  0
    3.5441   -1.0156    0.0000 C   0  0
    3.8145   -0.4136    0.0000 C   0  0
    2.7242   -1.0988    0.0000 N   0  0
    2.1731   -0.4848    0.0000 C   0  0
    1.4293   -0.8252    0.0000 C   0  0
    1.5039   -1.6398    0.0000 C   0  0
    2.3106   -1.8126    0.0000 N   0  0
    0.7145   -0.4125    0.0000 C   0  0
    0.7145    0.4125    0.0000 C   0  0
    0.0000    0.8250    0.0000 N   0  0
   -0.7145    0.4125    0.0000 C   0  0
   -1.4285    0.8267    0.0000 N   0  0
   -0.7145   -0.4125    0.0000 C   0  0
   -1.3273   -0.9642    0.0000 C   0  0
   -0.9918   -1.7178    0.0000 C   0  0
   -0.1713   -1.6316    0.0000 S   0  0
    0.0000   -0.8250    0.0000 C   0  0
   -2.1347   -0.7924    0.0000 C   0  0
   -2.4465   -0.0316    0.0000 C   0  0
   -3.2641    0.0788    0.0000 C   0  0
   -3.7684   -0.5741    0.0000 C   0  0
   -4.5867   -0.4654    0.0000 N   0  0
   -5.0904   -1.1194    0.0000 C   0  0
   -4.8387   -1.7295    0.0000 O   0  0
   -5.9086   -1.0107    0.0000 N   0  0
   -6.4123   -1.6646    0.0000 C   0  0
   -7.2304   -1.5572    0.0000 C   0  0
   -7.7325   -2.2118    0.0000 C   0  0
   -7.4165   -2.9739    0.0000 C   0  0
   -7.8182   -3.4976    0.0000 C   0  0
   -6.5986   -3.0815    0.0000 C   0  0
   -6.0965   -2.4268    0.0000 C   0  0
   -3.4552   -1.3373    0.0000 C   0  0
   -2.6375   -1.4477    0.0000 C   0  0
   -6.1184   -0.5022    0.0000 H   0  0
   -4.7964    0.0430    0.0000 H   0  0
   -1.4277    1.3767    0.0000 H   0  0
   -1.9053    0.5525    0.0000 H   0  0
    5.0738   -1.1000    0.0000 H   0  0
  1  2  1  0
  2  3  1  0
  2 43  1  0
  3  4  2  0
  3  5  1  0
  5  6  1  0
  5  7  1  0
  7  8  1  0
  8  9  2  0
  9 10  1  0
  9 12  1  0
 10 11  2  0
 11  7  1  0
 12 13  2  0
 13 14  1  0
 14 15  2  0
 15 16  1  0
 15 17  1  0
 16 41  1  0
 16 42  1  0
 17 18  1  0
 18 19  2  0
 18 22  1  0
 19 20  1  0
 20 21  1  0
 21 12  1  0
 21 17  2  0
 22 23  2  0
 23 24  1  0
 24 25  2  0
 25 26  1  0
 25 37  1  0
 26 27  1  0
 26 40  1  0
 27 28  2  0
 27 29  1  0
 29 30  1  0
 29 39  1  0
 30 31  2  0
 31 32  1  0
 32 33  2  0
 33 34  1  0
 33 35  1  0
 35 36  2  0
 36 30  1  0
 37 38  2  0
 38 22  1  0
M  END
> <CMPD_CHEMBLID>
CHEMBL1970142

> <STANDARD_TYPE>
Ki

> <RELATION>
=

> <STANDARD_VALUE>
3.98

> <STANDARD_UNITS>
nM

> <Molecular_Weight>
525.62468

$$$$

  SciTegic11272012012D

 24 27  0  0  0  0            999 V2000
    2.1455    0.2461    0.0000 C   0  0
    2.1445   -0.4139    0.0000 C   0  0
    2.8583   -0.8275    0.0000 C   0  0
    2.8570   -1.6525    0.0000 C   0  0
    2.1419   -2.0639    0.0000 C   0  0
    1.4281   -1.6502    0.0000 C   0  0
    1.4293   -0.8252    0.0000 C   0  0
    0.7144   -0.4125    0.0000 C   0  0
    0.7144    0.4125    0.0000 C   0  0
    0.0000    0.8250    0.0000 C   0  0
   -0.7144    0.4125    0.0000 C   0  0
   -1.4290    0.8250    0.0000 C   0  0
   -2.1434    0.4125    0.0000 N   0  0
   -2.1434   -0.4125    0.0000 C   0  0
   -2.8574   -0.8267    0.0000 N   0  0
   -2.8563   -1.6521    0.0000 C   0  0
   -2.2841   -1.9812    0.0000 O   0  0
   -3.5703   -2.0663    0.0000 C   0  0
   -3.9393   -2.7557    0.0000 C   0  0
   -4.3517   -2.0412    0.0000 C   0  0
   -1.4290   -0.8250    0.0000 C   0  0
   -0.7144   -0.4125    0.0000 C   0  0
    0.0000   -0.8250    0.0000 C   0  0
   -3.3342   -0.5525    0.0000 H   0  0
  1  2  1  0
  2  3  2  0
  3  4  1  0
  4  5  2  0
  5  6  1  0
  6  7  2  0
  7  2  1  0
  7  8  1  0
  8  9  2  0
  9 10  1  0
 10 11  2  0
 11 12  1  0
 12 13  2  0
 13 14  1  0
 14 15  1  0
 14 21  2  0
 15 16  1  0
 15 24  1  0
 16 17  2  0
 16 18  1  0
 18 19  1  0
 19 20  1  0
 20 18  1  0
 21 22  1  0
 22 11  1  0
 22 23  2  0
 23  8  1  0
M  END
> <CMPD_CHEMBLID>
CHEMBL3685197

> <STANDARD_TYPE>
Ki

> <RELATION>
=

> <STANDARD_VALUE>
4

> <STANDARD_UNITS>
nM

> <Molecular_Weight>
302.36972

$$$$

  SciTegic11272012012D

 23 26  0  0  0  0            999 V2000
    0.8551   -1.9812    0.0000 O   0  0
    1.4273   -1.6521    0.0000 C   0  0
    1.4285   -0.8267    0.0000 N   0  0
    0.7144   -0.4125    0.0000 C   0  0
    0.7144    0.4125    0.0000 C   0  0
    0.0000    0.8250    0.0000 C   0  0
    0.0000    1.6500    0.0000 C   0  0
   -0.7145    2.0625    0.0000 C   0  0
   -1.4290    1.6500    0.0000 C   0  0
   -1.4290    0.8250    0.0000 C   0  0
   -0.7144    0.4125    0.0000 C   0  0
   -0.7144   -0.4125    0.0000 C   0  0
    0.0000   -0.8250    0.0000 N   0  0
   -2.1438    2.0627    0.0000 C   0  0
   -2.1452    2.8877    0.0000 C   0  0
   -2.8603    3.2991    0.0000 N   0  0
   -3.5741    2.8855    0.0000 C   0  0
   -3.5728    2.0605    0.0000 N   0  0
   -2.8576    1.6491    0.0000 C   0  0
    2.1413   -2.0663    0.0000 C   0  0
    2.5103   -2.7557    0.0000 C   0  0
    2.9228   -2.0412    0.0000 C   0  0
    1.9053   -0.5525    0.0000 H   0  0
  1  2  2  0
  2  3  1  0
  2 20  1  0
  3  4  1  0
  3 23  1  0
  4  5  2  0
  5  6  1  0
  6  7  2  0
  7  8  1  0
  8  9  2  0
  9 10  1  0
  9 14  1  0
 10 11  2  0
 11  6  1  0
 11 12  1  0
 12 13  2  0
 13  4  1  0
 14 15  2  0
 15 16  1  0
 16 17  2  0
 17 18  1  0
 18 19  2  0
 19 14  1  0
 20 21  1  0
 21 22  1  0
 22 20  1  0
M  END
> <CMPD_CHEMBLID>
CHEMBL3685059

> <STANDARD_TYPE>
Ki

> <RELATION>
=

> <STANDARD_VALUE>
4

> <STANDARD_UNITS>
nM

> <Molecular_Weight>
290.31926

$$$$

  SciTegic11272012012D

 32 36  0  0  0  0            999 V2000
    3.7538   -2.8692    0.0000 O   0  0
    3.5952   -2.2285    0.0000 C   0  0
    4.1900   -1.6563    0.0000 N   0  0
    4.9833   -1.8848    0.0000 C   0  0
    5.7362   -1.6740    0.0000 C   0  0
    5.5061   -2.4662    0.0000 C   0  0
    2.8020   -2.0000    0.0000 N   0  0
    2.2081   -2.5711    0.0000 C   0  0
    2.3159   -3.3891    0.0000 C   0  0
    1.5714   -3.7445    0.0000 N   0  0
    1.0033   -3.1461    0.0000 N   0  0
    1.4045   -2.4327    0.0000 C   0  0
    0.9918   -1.7179    0.0000 C   0  0
    1.3273   -0.9642    0.0000 N   0  0
    0.7145   -0.4125    0.0000 C   0  0
    0.7145    0.4125    0.0000 C   0  0
    0.0000    0.8250    0.0000 C   0  0
   -0.0017    1.6505    0.0000 C   0  0
   -0.7172    2.0622    0.0000 N   0  0
   -0.7201    2.8872    0.0000 C   0  0
   -1.4360    3.2973    0.0000 C   0  0
   -2.1491    2.8823    0.0000 O   0  0
   -2.1462    2.0573    0.0000 C   0  0
   -1.4303    1.6472    0.0000 C   0  0
   -0.7145    0.4125    0.0000 C   0  0
   -0.7145   -0.4125    0.0000 C   0  0
    0.0000   -0.8250    0.0000 C   0  0
    0.1713   -1.6316    0.0000 N   0  0
   -0.1967   -2.0403    0.0000 H   0  0
    1.4713   -4.2853    0.0000 H   0  0
    2.6698   -1.4661    0.0000 H   0  0
    4.0579   -1.1224    0.0000 H   0  0
  1  2  2  0
  2  3  1  0
  2  7  1  0
  3  4  1  0
  3 32  1  0
  4  5  1  0
  5  6  1  0
  6  4  1  0
  7  8  1  0
  7 31  1  0
  8  9  2  0
  9 10  1  0
 10 11  1  0
 10 30  1  0
 11 12  2  0
 12  8  1  0
 12 13  1  0
 13 14  2  0
 14 15  1  0
 15 16  2  0
 16 17  1  0
 17 18  1  0
 17 25  2  0
 18 19  1  0
 19 20  1  0
 20 21  1  0
 21 22  1  0
 22 23  1  0
 23 24  1  0
 24 19  1  0
 25 26  1  0
 26 27  2  0
 27 15  1  0
 27 28  1  0
 28 13  1  0
 28 29  1  0
M  END
> <CMPD_CHEMBLID>
CHEMBL495727

> <STANDARD_TYPE>
IC50

> <RELATION>
=

> <STANDARD_VALUE>
4

> <STANDARD_UNITS>
nM

> <Molecular_Weight>
381.43162

$$$$

  SciTegic11272012012D

 27 30  0  0  0  0            999 V2000
    2.1456    0.2461    0.0000 C   0  0
    2.1445   -0.4139    0.0000 C   0  0
    2.8583   -0.8275    0.0000 C   0  0
    2.8570   -1.6525    0.0000 N   0  0
    2.1419   -2.0639    0.0000 C   0  0
    2.1389   -2.8894    0.0000 C   0  0
    1.4228   -3.2999    0.0000 O   0  0
    1.4281   -1.6502    0.0000 C   0  0
    1.4293   -0.8252    0.0000 C   0  0
    0.7145   -0.4125    0.0000 C   0  0
    0.7145    0.4125    0.0000 C   0  0
    0.0000    0.8250    0.0000 C   0  0
   -0.7145    0.4125    0.0000 C   0  0
   -1.4290    0.8250    0.0000 C   0  0
   -2.1434    0.4125    0.0000 C   0  0
   -2.8592    0.8237    0.0000 N   0  0
   -3.5735    0.4100    0.0000 C   0  0
   -3.5723   -0.2500    0.0000 O   0  0
   -4.2892    0.8213    0.0000 C   0  0
   -5.0706    0.7961    0.0000 C   0  0
   -4.6581    1.5106    0.0000 C   0  0
   -2.1434   -0.4125    0.0000 N   0  0
   -1.4290   -0.8250    0.0000 C   0  0
   -0.7145   -0.4125    0.0000 C   0  0
    0.0000   -0.8250    0.0000 C   0  0
   -2.8601    1.3738    0.0000 H   0  0
    1.4208   -3.8499    0.0000 H   0  0
  1  2  1  0
  2  3  2  0
  3  4  1  0
  4  5  2  0
  5  6  1  0
  5  8  1  0
  6  7  1  0
  7 27  1  0
  8  9  2  0
  9  2  1  0
  9 10  1  0
 10 11  2  0
 11 12  1  0
 12 13  2  0
 13 14  1  0
 14 15  2  0
 15 16  1  0
 15 22  1  0
 16 17  1  0
 16 26  1  0
 17 18  2  0
 17 19  1  0
 19 20  1  0
 20 21  1  0
 21 19  1  0
 22 23  2  0
 23 24  1  0
 24 13  1  0
 24 25  2  0
 25 10  1  0
M  END
> <CMPD_CHEMBLID>
CHEMBL3639884

> <STANDARD_TYPE>
Ki

> <RELATION>
=

> <STANDARD_VALUE>
4

> <STANDARD_UNITS>
nM

> <Molecular_Weight>
333.38376

$$$$

  SciTegic11272012012D

 27 29  0  0  0  0            999 V2000
    4.1467   -0.7363    0.0000 C   0  0
    3.5744   -0.4075    0.0000 C   0  0
    2.8602   -0.8213    0.0000 N   0  0
    2.1444   -0.4100    0.0000 C   0  0
    2.1433    0.2500    0.0000 O   0  0
    1.4302   -0.8237    0.0000 N   0  0
    0.7144   -0.4125    0.0000 C   0  0
    0.7144    0.4125    0.0000 N   0  0
    0.0000    0.8250    0.0000 C   0  0
   -0.7144    0.4125    0.0000 C   0  0
   -1.4290    0.8250    0.0000 C   0  0
   -2.1434    0.4125    0.0000 C   0  0
   -2.1434   -0.4125    0.0000 C   0  0
   -1.4290   -0.8250    0.0000 C   0  0
   -0.7144   -0.4125    0.0000 C   0  0
    0.0000   -0.8250    0.0000 C   0  0
    0.0000   -1.4850    0.0000 F   0  0
   -2.8582    0.8252    0.0000 C   0  0
   -3.5721    0.4116    0.0000 C   0  0
   -4.2872    0.8230    0.0000 C   0  0
   -4.8583    0.4920    0.0000 F   0  0
   -4.2886    1.6480    0.0000 C   0  0
   -3.5747    2.0616    0.0000 C   0  0
   -2.8596    1.6502    0.0000 C   0  0
   -2.2885    1.9812    0.0000 C   0  0
    1.4312   -1.3737    0.0000 H   0  0
    2.8612   -1.3713    0.0000 H   0  0
  1  2  1  0
  2  3  1  0
  3  4  1  0
  3 27  1  0
  4  5  2  0
  4  6  1  0
  6  7  1  0
  6 26  1  0
  7  8  2  0
  8  9  1  0
  9 10  2  0
 10 11  1  0
 11 12  2  0
 12 13  1  0
 12 18  1  0
 13 14  2  0
 14 15  1  0
 15 10  1  0
 15 16  2  0
 16  7  1  0
 16 17  1  0
 18 19  2  0
 19 20  1  0
 20 21  1  0
 20 22  2  0
 22 23  1  0
 23 24  2  0
 24 18  1  0
 24 25  1  0
M  END
> <CMPD_CHEMBLID>
CHEMBL3685117

> <STANDARD_TYPE>
Ki

> <RELATION>
=

> <STANDARD_VALUE>
4

> <STANDARD_UNITS>
nM

> <Molecular_Weight>
341.35459

$$$$

  SciTegic11272012012D

 29 32  0  0  0  0            999 V2000
    4.1419   -3.2214    0.0000 C   0  0
    3.5703   -2.8914    0.0000 N   0  0
    2.8558   -3.3038    0.0000 C   0  0
    2.1414   -2.8913    0.0000 C   0  0
    2.1413   -2.0663    0.0000 N   0  0
    2.8559   -1.6539    0.0000 C   0  0
    3.5703   -2.0664    0.0000 C   0  0
    1.4273   -1.6521    0.0000 C   0  0
    0.8551   -1.9812    0.0000 O   0  0
    1.4285   -0.8267    0.0000 N   0  0
    0.7144   -0.4125    0.0000 C   0  0
    0.7144    0.4125    0.0000 C   0  0
    0.0000    0.8250    0.0000 C   0  0
    0.0000    1.6500    0.0000 C   0  0
   -0.7145    2.0625    0.0000 C   0  0
   -1.4290    1.6500    0.0000 C   0  0
   -1.4290    0.8250    0.0000 C   0  0
   -0.7144    0.4125    0.0000 C   0  0
   -0.7144   -0.4125    0.0000 C   0  0
    0.0000   -0.8250    0.0000 N   0  0
   -2.1438    2.0627    0.0000 C   0  0
   -2.8576    1.6491    0.0000 C   0  0
   -3.5728    2.0605    0.0000 C   0  0
   -4.1438    1.7295    0.0000 F   0  0
   -3.5741    2.8855    0.0000 C   0  0
   -2.8603    3.2991    0.0000 C   0  0
   -2.1452    2.8877    0.0000 C   0  0
   -1.5741    3.2187    0.0000 C   0  0
    1.9053   -0.5525    0.0000 H   0  0
  1  2  1  0
  2  3  1  0
  3  4  1  0
  4  5  1  0
  5  6  1  0
  5  8  1  0
  6  7  1  0
  7  2  1  0
  8  9  2  0
  8 10  1  0
 10 11  1  0
 10 29  1  0
 11 12  2  0
 12 13  1  0
 13 14  2  0
 14 15  1  0
 15 16  2  0
 16 17  1  0
 16 21  1  0
 17 18  2  0
 18 13  1  0
 18 19  1  0
 19 20  2  0
 20 11  1  0
 21 22  2  0
 22 23  1  0
 23 24  1  0
 23 25  2  0
 25 26  1  0
 26 27  2  0
 27 21  1  0
 27 28  1  0
M  END
> <CMPD_CHEMBLID>
CHEMBL3685129

> <STANDARD_TYPE>
Ki

> <RELATION>
=

> <STANDARD_VALUE>
4

> <STANDARD_UNITS>
nM

> <Molecular_Weight>
378.44262

$$$$

  SciTegic11272012012D

 28 31  0  0  0  0            999 V2000
   -0.5785   -2.9632    0.0000 C   0  0
   -0.0086   -3.2960    0.0000 O   0  0
    0.7086   -2.8872    0.0000 C   0  0
    1.4216   -3.3022    0.0000 C   0  0
    2.1375   -2.8922    0.0000 C   0  0
    2.1403   -2.0672    0.0000 C   0  0
    1.4273   -1.6521    0.0000 C   0  0
    1.4285   -0.8267    0.0000 N   0  0
    0.7144   -0.4125    0.0000 C   0  0
    0.7144    0.4125    0.0000 C   0  0
    0.0000    0.8250    0.0000 C   0  0
    0.0000    1.6500    0.0000 C   0  0
   -0.7145    2.0625    0.0000 C   0  0
   -1.4290    1.6500    0.0000 C   0  0
   -1.4290    0.8250    0.0000 C   0  0
   -0.7144    0.4125    0.0000 C   0  0
   -0.7144   -0.4125    0.0000 C   0  0
    0.0000   -0.8250    0.0000 N   0  0
   -2.1438    2.0627    0.0000 C   0  0
   -2.8576    1.6491    0.0000 C   0  0
   -3.5728    2.0605    0.0000 C   0  0
   -4.1438    1.7295    0.0000 F   0  0
   -3.5741    2.8855    0.0000 C   0  0
   -2.8603    3.2991    0.0000 C   0  0
   -2.1452    2.8877    0.0000 C   0  0
   -1.5741    3.2187    0.0000 C   0  0
    0.7114   -2.0622    0.0000 N   0  0
    1.9053   -0.5525    0.0000 H   0  0
  1  2  1  0
  2  3  1  0
  3  4  2  0
  4  5  1  0
  5  6  2  0
  6  7  1  0
  7  8  1  0
  7 27  2  0
  8  9  1  0
  8 28  1  0
  9 10  2  0
 10 11  1  0
 11 12  2  0
 12 13  1  0
 13 14  2  0
 14 15  1  0
 14 19  1  0
 15 16  2  0
 16 11  1  0
 16 17  1  0
 17 18  2  0
 18  9  1  0
 19 20  2  0
 20 21  1  0
 21 22  1  0
 21 23  2  0
 23 24  1  0
 24 25  2  0
 25 19  1  0
 25 26  1  0
 27  3  1  0
M  END
> <CMPD_CHEMBLID>
CHEMBL3685128

> <STANDARD_TYPE>
Ki

> <RELATION>
=

> <STANDARD_VALUE>
4

> <STANDARD_UNITS>
nM

> <Molecular_Weight>
359.39622

$$$$

  SciTegic11272012012D

 31 35  0  0  0  0            999 V2000
    2.1455    0.2461    0.0000 C   0  0
    2.1445   -0.4139    0.0000 C   0  0
    2.8583   -0.8275    0.0000 C   0  0
    2.8570   -1.6525    0.0000 C   0  0
    2.1419   -2.0639    0.0000 C   0  0
    2.1408   -2.7239    0.0000 F   0  0
    1.4281   -1.6502    0.0000 C   0  0
    1.4293   -0.8252    0.0000 C   0  0
    0.7144   -0.4125    0.0000 C   0  0
    0.7144    0.4125    0.0000 C   0  0
    0.0000    0.8250    0.0000 C   0  0
    0.0000    1.6500    0.0000 C   0  0
   -0.7145    2.0625    0.0000 N   0  0
   -1.4290    1.6500    0.0000 C   0  0
   -2.1447    2.0612    0.0000 N   0  0
   -2.8590    1.6475    0.0000 C   0  0
   -2.8578    0.9875    0.0000 O   0  0
   -3.5747    2.0588    0.0000 C   0  0
   -4.3561    2.0337    0.0000 C   0  0
   -3.9436    2.7481    0.0000 C   0  0
   -1.4290    0.8250    0.0000 C   0  0
   -0.7144    0.4125    0.0000 C   0  0
   -0.7144   -0.4125    0.0000 C   0  0
   -1.4285   -0.8267    0.0000 O   0  0
   -1.4273   -1.6521    0.0000 C   0  0
   -2.0931   -2.1274    0.0000 C   0  0
   -1.8354   -2.9111    0.0000 C   0  0
   -1.0104   -2.9082    0.0000 C   0  0
   -0.7582   -2.1227    0.0000 C   0  0
    0.0000   -0.8250    0.0000 N   0  0
   -2.1457    2.6112    0.0000 H   0  0
  1  2  1  0
  2  3  2  0
  3  4  1  0
  4  5  2  0
  5  6  1  0
  5  7  1  0
  7  8  2  0
  8  2  1  0
  8  9  1  0
  9 10  2  0
 10 11  1  0
 11 12  2  0
 12 13  1  0
 13 14  2  0
 14 15  1  0
 14 21  1  0
 15 16  1  0
 15 31  1  0
 16 17  2  0
 16 18  1  0
 18 19  1  0
 19 20  1  0
 20 18  1  0
 21 22  2  0
 22 11  1  0
 22 23  1  0
 23 24  1  0
 23 30  2  0
 24 25  1  0
 25 26  1  0
 26 27  1  0
 27 28  1  0
 28 29  1  0
 29 25  1  0
 30  9  1  0
M  END
> <CMPD_CHEMBLID>
CHEMBL3689652

> <STANDARD_TYPE>
Ki

> <RELATION>
=

> <STANDARD_VALUE>
4

> <STANDARD_UNITS>
nM

> <Molecular_Weight>
405.46466

$$$$

  SciTegic11272012012D

 25 28  0  0  0  0            999 V2000
    3.4281   -1.9834    0.0000 C   0  0
    2.8570   -1.6525    0.0000 C   0  0
    2.8583   -0.8275    0.0000 N   0  0
    2.1445   -0.4139    0.0000 C   0  0
    1.4293   -0.8252    0.0000 C   0  0
    1.4281   -1.6502    0.0000 C   0  0
    2.1419   -2.0639    0.0000 C   0  0
    2.1408   -2.7239    0.0000 F   0  0
    0.7145   -0.4125    0.0000 C   0  0
    0.7145    0.4125    0.0000 C   0  0
    0.0000    0.8250    0.0000 C   0  0
   -0.7145    0.4125    0.0000 C   0  0
   -1.4290    0.8250    0.0000 C   0  0
   -2.1434    0.4125    0.0000 C   0  0
   -2.8592    0.8237    0.0000 N   0  0
   -3.5735    0.4100    0.0000 C   0  0
   -3.5723   -0.2500    0.0000 O   0  0
   -4.2892    0.8213    0.0000 C   0  0
   -5.0706    0.7961    0.0000 C   0  0
   -4.6581    1.5106    0.0000 C   0  0
   -2.1434   -0.4125    0.0000 N   0  0
   -1.4290   -0.8250    0.0000 C   0  0
   -0.7145   -0.4125    0.0000 C   0  0
    0.0000   -0.8250    0.0000 C   0  0
   -2.8601    1.3738    0.0000 H   0  0
  1  2  1  0
  2  3  2  0
  3  4  1  0
  4  5  2  0
  5  6  1  0
  5  9  1  0
  6  7  2  0
  7  2  1  0
  7  8  1  0
  9 10  2  0
 10 11  1  0
 11 12  2  0
 12 13  1  0
 13 14  2  0
 14 15  1  0
 14 21  1  0
 15 16  1  0
 15 25  1  0
 16 17  2  0
 16 18  1  0
 18 19  1  0
 19 20  1  0
 20 18  1  0
 21 22  2  0
 22 23  1  0
 23 12  1  0
 23 24  2  0
 24  9  1  0
M  END
> <CMPD_CHEMBLID>
CHEMBL3685126

> <STANDARD_TYPE>
Ki

> <RELATION>
=

> <STANDARD_VALUE>
4

> <STANDARD_UNITS>
nM

> <Molecular_Weight>
321.34824

$$$$

  SciTegic11272012012D

 26 29  0  0  0  0            999 V2000
    2.1389   -2.8894    0.0000 N   0  0
    2.1419   -2.0639    0.0000 C   0  0
    2.8570   -1.6525    0.0000 C   0  0
    2.8583   -0.8275    0.0000 N   0  0
    2.1445   -0.4139    0.0000 C   0  0
    1.4293   -0.8252    0.0000 C   0  0
    1.4281   -1.6502    0.0000 C   0  0
    0.7145   -0.4125    0.0000 C   0  0
    0.7145    0.4125    0.0000 C   0  0
    0.0000    0.8250    0.0000 C   0  0
   -0.7145    0.4125    0.0000 C   0  0
   -1.4290    0.8250    0.0000 C   0  0
   -2.1434    0.4125    0.0000 C   0  0
   -2.8592    0.8237    0.0000 N   0  0
   -3.5735    0.4100    0.0000 C   0  0
   -3.5723   -0.2500    0.0000 O   0  0
   -4.2892    0.8213    0.0000 C   0  0
   -5.0706    0.7961    0.0000 C   0  0
   -4.6581    1.5106    0.0000 C   0  0
   -2.1434   -0.4125    0.0000 N   0  0
   -1.4290   -0.8250    0.0000 C   0  0
   -0.7145   -0.4125    0.0000 C   0  0
    0.0000   -0.8250    0.0000 C   0  0
   -2.8601    1.3738    0.0000 H   0  0
    1.6617   -3.1629    0.0000 H   0  0
    2.6143   -3.1660    0.0000 H   0  0
  1  2  1  0
  1 25  1  0
  1 26  1  0
  2  3  2  0
  3  4  1  0
  4  5  2  0
  5  6  1  0
  6  7  2  0
  6  8  1  0
  7  2  1  0
  8  9  2  0
  9 10  1  0
 10 11  2  0
 11 12  1  0
 12 13  2  0
 13 14  1  0
 13 20  1  0
 14 15  1  0
 14 24  1  0
 15 16  2  0
 15 17  1  0
 17 18  1  0
 18 19  1  0
 19 17  1  0
 20 21  2  0
 21 22  1  0
 22 11  1  0
 22 23  2  0
 23  8  1  0
M  END
> <CMPD_CHEMBLID>
CHEMBL3685143

> <STANDARD_TYPE>
Ki

> <RELATION>
=

> <STANDARD_VALUE>
4

> <STANDARD_UNITS>
nM

> <Molecular_Weight>
304.34584

$$$$

  SciTegic11272012012D

 21 23  0  0  0  0            999 V2000
    1.9982   -1.9833    0.0000 F   0  0
    1.4273   -1.6522    0.0000 C   0  0
    0.8552   -1.9812    0.0000 F   0  0
    1.4285   -0.8267    0.0000 O   0  0
    0.7145   -0.4125    0.0000 C   0  0
    0.7145    0.4125    0.0000 C   0  0
    0.0000    0.8250    0.0000 C   0  0
   -0.7145    0.4125    0.0000 C   0  0
   -1.4290    0.8250    0.0000 C   0  0
   -2.1435    0.4125    0.0000 C   0  0
   -2.8592    0.8238    0.0000 N   0  0
   -3.5735    0.4100    0.0000 C   0  0
   -3.5723   -0.2500    0.0000 O   0  0
   -4.2892    0.8213    0.0000 C   0  0
   -5.0707    0.7961    0.0000 C   0  0
   -4.6582    1.5106    0.0000 C   0  0
   -2.1435   -0.4125    0.0000 N   0  0
   -1.4290   -0.8250    0.0000 C   0  0
   -0.7145   -0.4125    0.0000 C   0  0
    0.0000   -0.8250    0.0000 C   0  0
   -2.8602    1.3738    0.0000 H   0  0
  1  2  1  0
  2  3  1  0
  2  4  1  0
  4  5  1  0
  5  6  2  0
  6  7  1  0
  7  8  2  0
  8  9  1  0
  9 10  2  0
 10 11  1  0
 10 17  1  0
 11 12  1  0
 11 21  1  0
 12 13  2  0
 12 14  1  0
 14 15  1  0
 15 16  1  0
 16 14  1  0
 17 18  2  0
 18 19  1  0
 19  8  1  0
 19 20  2  0
 20  5  1  0
M  END
> <CMPD_CHEMBLID>
CHEMBL3685093

> <STANDARD_TYPE>
Ki

> <RELATION>
=

> <STANDARD_VALUE>
4

> <STANDARD_UNITS>
nM

> <Molecular_Weight>
278.25409

$$$$

  SciTegic11272012012D

 27 30  0  0  0  0            999 V2000
    2.1456    0.2461    0.0000 C   0  0
    2.1445   -0.4139    0.0000 C   0  0
    2.8583   -0.8275    0.0000 N   0  0
    2.8570   -1.6525    0.0000 C   0  0
    2.1419   -2.0639    0.0000 C   0  0
    2.1389   -2.8894    0.0000 N   0  0
    1.4281   -1.6502    0.0000 C   0  0
    1.4293   -0.8252    0.0000 C   0  0
    0.7145   -0.4125    0.0000 C   0  0
    0.7145    0.4125    0.0000 C   0  0
    0.0000    0.8250    0.0000 C   0  0
   -0.7145    0.4125    0.0000 C   0  0
   -1.4290    0.8250    0.0000 C   0  0
   -2.1434    0.4125    0.0000 C   0  0
   -2.8592    0.8237    0.0000 N   0  0
   -3.5735    0.4100    0.0000 C   0  0
   -3.5723   -0.2500    0.0000 O   0  0
   -4.2892    0.8213    0.0000 C   0  0
   -5.0706    0.7961    0.0000 C   0  0
   -4.6581    1.5106    0.0000 C   0  0
   -2.1434   -0.4125    0.0000 N   0  0
   -1.4290   -0.8250    0.0000 C   0  0
   -0.7145   -0.4125    0.0000 C   0  0
    0.0000   -0.8250    0.0000 C   0  0
   -2.8601    1.3738    0.0000 H   0  0
    1.6617   -3.1629    0.0000 H   0  0
    2.6143   -3.1660    0.0000 H   0  0
  1  2  1  0
  2  3  2  0
  3  4  1  0
  4  5  2  0
  5  6  1  0
  5  7  1  0
  6 26  1  0
  6 27  1  0
  7  8  2  0
  8  2  1  0
  8  9  1  0
  9 10  2  0
 10 11  1  0
 11 12  2  0
 12 13  1  0
 13 14  2  0
 14 15  1  0
 14 21  1  0
 15 16  1  0
 15 25  1  0
 16 17  2  0
 16 18  1  0
 18 19  1  0
 19 20  1  0
 20 18  1  0
 21 22  2  0
 22 23  1  0
 23 12  1  0
 23 24  2  0
 24  9  1  0
M  END
> <CMPD_CHEMBLID>
CHEMBL3689566

> <STANDARD_TYPE>
Ki

> <RELATION>
=

> <STANDARD_VALUE>
4

> <STANDARD_UNITS>
nM

> <Molecular_Weight>
318.37242

$$$$

  SciTegic11272012012D

 38 42  0  0  0  0            999 V2000
    1.2861   -0.7425    0.0000 C   0  0
    0.7145   -0.4125    0.0000 C   0  0
    0.7145    0.4125    0.0000 C   0  0
    0.0000    0.8250    0.0000 C   0  0
   -0.7145    0.4125    0.0000 C   0  0
   -0.7145   -0.4125    0.0000 C   0  0
   -1.4290   -0.8250    0.0000 N   0  0
   -1.4290   -1.6500    0.0000 N   0  0
   -0.7145   -2.0625    0.0000 C   0  0
   -0.7127   -2.8879    0.0000 N   0  0
    0.0027   -3.2997    0.0000 C   0  0
    0.0056   -4.1247    0.0000 C   0  0
    0.7215   -4.5347    0.0000 C   0  0
    1.4345   -4.1197    0.0000 C   0  0
    1.4317   -3.2947    0.0000 C   0  0
    0.7158   -2.8847    0.0000 C   0  0
    2.1517   -4.5285    0.0000 C   0  0
    2.1551   -5.1885    0.0000 O   0  0
    2.8645   -4.1123    0.0000 N   0  0
    3.5819   -4.5198    0.0000 C   0  0
    4.2935   -4.1023    0.0000 C   0  0
    4.2877   -3.2774    0.0000 S   0  0
    4.8538   -3.6169    0.0000 O   0  0
    4.2677   -2.6177    0.0000 O   0  0
    3.5704   -2.8698    0.0000 C   0  0
    2.8588   -3.2873    0.0000 C   0  0
    0.0000   -1.6500    0.0000 N   0  0
    0.0000   -0.8250    0.0000 C   0  0
    0.0000    1.6504    0.0000 C   0  0
   -0.7151    2.0618    0.0000 C   0  0
   -0.7164    2.8868    0.0000 C   0  0
   -1.4311    3.2999    0.0000 O   0  0
   -0.0026    3.3005    0.0000 C   0  0
    0.7125    2.8891    0.0000 C   0  0
    0.7138    2.0641    0.0000 C   0  0
    1.2859    1.7350    0.0000 Cl  0  0
   -1.4312    3.8499    0.0000 H   0  0
   -1.1886   -3.1638    0.0000 H   0  0
  1  2  1  0
  2  3  2  0
  3  4  1  0
  4  5  2  0
  4 29  1  0
  5  6  1  0
  6  7  2  0
  7  8  1  0
  8  9  2  0
  9 10  1  0
  9 27  1  0
 10 11  1  0
 10 38  1  0
 11 12  2  0
 12 13  1  0
 13 14  2  0
 14 15  1  0
 14 17  1  0
 15 16  2  0
 16 11  1  0
 17 18  2  0
 17 19  1  0
 19 20  1  0
 20 21  1  0
 21 22  1  0
 22 23  2  0
 22 24  2  0
 22 25  1  0
 25 26  1  0
 26 19  1  0
 27 28  2  0
 28  2  1  0
 28  6  1  0
 29 30  2  0
 30 31  1  0
 31 32  1  0
 31 33  2  0
 32 37  1  0
 33 34  1  0
 34 35  2  0
 35 29  1  0
 35 36  1  0
M  END
> <CMPD_CHEMBLID>
CHEMBL249819

> <STANDARD_TYPE>
Ki

> <RELATION>
=

> <STANDARD_VALUE>
4.2

> <STANDARD_UNITS>
nM

> <Molecular_Weight>
523.99128

$$$$

  SciTegic11272012012D

 26 29  0  0  0  0            999 V2000
    1.4302   -0.8237    0.0000 N   0  0
    0.7145   -0.4125    0.0000 C   0  0
    0.7145    0.4125    0.0000 N   0  0
    0.0000    0.8250    0.0000 C   0  0
   -0.7145    0.4125    0.0000 N   0  0
   -0.7145   -0.4125    0.0000 C   0  0
    0.0000   -0.8250    0.0000 C   0  0
   -0.1713   -1.6316    0.0000 C   0  0
   -0.9918   -1.7178    0.0000 N   0  0
   -1.3273   -0.9642    0.0000 N   0  0
   -2.1348   -0.7925    0.0000 C   0  0
   -2.7753   -1.2969    0.0000 C   0  0
   -3.4553   -0.8297    0.0000 C   0  0
   -3.2211   -0.0386    0.0000 C   0  0
   -2.3964   -0.0169    0.0000 C   0  0
    0.3811   -2.2450    0.0000 C   0  0
    1.1959   -2.1345    0.0000 C   0  0
    1.7002   -2.7874    0.0000 C   0  0
    1.3870   -3.5506    0.0000 C   0  0
    1.7905   -4.0729    0.0000 F   0  0
    0.5694   -3.6610    0.0000 C   0  0
    0.2544   -4.4240    0.0000 O   0  0
    0.0651   -3.0081    0.0000 C   0  0
   -0.2907   -4.4968    0.0000 H   0  0
    1.9062   -0.5481    0.0000 H   0  0
    1.4312   -1.3738    0.0000 H   0  0
  1  2  1  0
  1 25  1  0
  1 26  1  0
  2  3  2  0
  3  4  1  0
  4  5  2  0
  5  6  1  0
  6  7  2  0
  7  2  1  0
  7  8  1  0
  8  9  2  0
  8 16  1  0
  9 10  1  0
 10  6  1  0
 10 11  1  0
 11 12  1  0
 12 13  1  0
 13 14  1  0
 14 15  1  0
 15 11  1  0
 16 17  2  0
 17 18  1  0
 18 19  2  0
 19 20  1  0
 19 21  1  0
 21 22  1  0
 21 23  2  0
 22 24  1  0
 23 16  1  0
M  END
> <CMPD_CHEMBLID>
CHEMBL1242568

> <STANDARD_TYPE>
IC50

> <RELATION>
=

> <STANDARD_VALUE>
4.3

> <STANDARD_UNITS>
nM

> <Molecular_Weight>
313.32954

$$$$

  SciTegic11272012012D

 46 49  0  0  0  0            999 V2000
    1.2861   -0.7425    0.0000 C   0  0
    0.7144   -0.4125    0.0000 C   0  0
    0.7144    0.4125    0.0000 C   0  0
    0.0000    0.8250    0.0000 C   0  0
   -0.7144    0.4125    0.0000 C   0  0
   -0.7144   -0.4125    0.0000 C   0  0
    0.0000   -0.8250    0.0000 C   0  0
    0.0000   -1.6504    0.0000 C   0  0
    0.0000   -2.4759    0.0000 C   0  0
    0.0000   -3.3014    0.0000 C   0  0
   -0.6674   -3.7742    0.0000 C   0  0
   -0.4125   -4.5588    0.0000 N   0  0
    0.4125   -4.5588    0.0000 C   0  0
    0.8955   -5.2265    0.0000 C   0  0
    1.5520   -5.1587    0.0000 O   0  0
    0.5586   -5.9801    0.0000 N   0  0
    0.6674   -3.7742    0.0000 N   0  0
    1.2939   -3.5665    0.0000 C   0  0
   -1.4302    0.8237    0.0000 C   0  0
   -1.4313    1.4837    0.0000 O   0  0
   -2.1444    0.4100    0.0000 N   0  0
   -2.8602    0.8213    0.0000 C   0  0
   -3.5747    0.4088    0.0000 C   0  0
   -4.2892    0.8213    0.0000 C   0  0
   -4.2892    1.6463    0.0000 C   0  0
   -5.0049    2.0575    0.0000 C   0  0
   -5.7192    1.6437    0.0000 N   0  0
   -6.4351    2.0537    0.0000 C   0  0
   -7.1481    1.6387    0.0000 C   0  0
   -7.1453    0.8137    0.0000 N   0  0
   -7.8579    0.3970    0.0000 C   0  0
   -7.8538   -0.4284    0.0000 C   0  0
   -7.2805   -0.7554    0.0000 O   0  0
   -8.5664   -0.8451    0.0000 O   0  0
   -6.4294    0.4037    0.0000 C   0  0
   -5.7163    0.8187    0.0000 C   0  0
   -3.5747    2.0588    0.0000 C   0  0
   -2.8602    1.6463    0.0000 C   0  0
   -3.5747    2.8842    0.0000 C   0  0
   -4.1461    3.2146    0.0000 F   0  0
   -3.0031    3.2140    0.0000 F   0  0
   -3.5744    3.5442    0.0000 F   0  0
   -8.5637   -1.3951    0.0000 H   0  0
   -2.1435   -0.1400    0.0000 H   0  0
    0.8810   -6.4258    0.0000 H   0  0
    0.0116   -6.0366    0.0000 H   0  0
  1  2  1  0
  2  3  2  0
  3  4  1  0
  4  5  2  0
  5  6  1  0
  5 19  1  0
  6  7  2  0
  7  2  1  0
  7  8  1  0
  8  9  3  0
  9 10  1  0
 10 11  2  0
 11 12  1  0
 12 13  2  0
 13 14  1  0
 13 17  1  0
 14 15  2  0
 14 16  1  0
 16 45  1  0
 16 46  1  0
 17 10  1  0
 17 18  1  0
 19 20  2  0
 19 21  1  0
 21 22  1  0
 21 44  1  0
 22 23  2  0
 23 24  1  0
 24 25  2  0
 25 26  1  0
 25 37  1  0
 26 27  1  0
 27 28  1  0
 28 29  1  0
 29 30  1  0
 30 31  1  0
 30 35  1  0
 31 32  1  0
 32 33  2  0
 32 34  1  0
 34 43  1  0
 35 36  1  0
 36 27  1  0
 37 38  2  0
 37 39  1  0
 38 22  1  0
 39 40  1  0
 39 41  1  0
 39 42  1  0
M  END
> <CMPD_CHEMBLID>
CHEMBL1784639

> <STANDARD_TYPE>
IC50

> <RELATION>
=

> <STANDARD_VALUE>
4.3

> <STANDARD_UNITS>
nM

> <Molecular_Weight>
582.57357

$$$$

  SciTegic11272012012D

 38 42  0  0  0  0            999 V2000
    1.2861   -0.7425    0.0000 C   0  0
    0.7144   -0.4125    0.0000 C   0  0
    0.7144    0.4125    0.0000 C   0  0
    0.0000    0.8250    0.0000 C   0  0
   -0.7144    0.4125    0.0000 C   0  0
   -0.7144   -0.4125    0.0000 C   0  0
   -1.4290   -0.8250    0.0000 N   0  0
   -1.4290   -1.6500    0.0000 N   0  0
   -0.7144   -2.0625    0.0000 C   0  0
   -0.7127   -2.8879    0.0000 N   0  0
    0.0027   -3.2997    0.0000 C   0  0
    0.0056   -4.1247    0.0000 C   0  0
    0.7215   -4.5347    0.0000 C   0  0
    1.4345   -4.1197    0.0000 C   0  0
    1.4317   -3.2947    0.0000 C   0  0
    0.7158   -2.8847    0.0000 C   0  0
    2.1508   -4.5300    0.0000 S   0  0
    2.7211   -4.1978    0.0000 O   0  0
    2.1484   -3.8700    0.0000 O   0  0
    2.1542   -5.3554    0.0000 N   0  0
    1.4414   -5.7709    0.0000 C   0  0
    1.4448   -6.5958    0.0000 C   0  0
    2.1609   -7.0054    0.0000 N   0  0
    2.8737   -6.5900    0.0000 C   0  0
    2.8703   -5.7650    0.0000 C   0  0
    0.0000   -1.6500    0.0000 N   0  0
    0.0000   -0.8250    0.0000 C   0  0
    0.0000    1.6504    0.0000 C   0  0
   -0.7151    2.0618    0.0000 C   0  0
   -0.7164    2.8868    0.0000 C   0  0
   -1.4311    3.2999    0.0000 O   0  0
   -0.0026    3.3005    0.0000 C   0  0
    0.7125    2.8891    0.0000 C   0  0
    0.7138    2.0641    0.0000 C   0  0
    1.2859    1.7350    0.0000 Cl  0  0
   -1.4312    3.8499    0.0000 H   0  0
    2.1632   -7.5554    0.0000 H   0  0
   -1.1886   -3.1638    0.0000 H   0  0
  1  2  1  0
  2  3  2  0
  3  4  1  0
  4  5  2  0
  4 28  1  0
  5  6  1  0
  6  7  2  0
  7  8  1  0
  8  9  2  0
  9 10  1  0
  9 26  1  0
 10 11  1  0
 10 38  1  0
 11 12  2  0
 12 13  1  0
 13 14  2  0
 14 15  1  0
 14 17  1  0
 15 16  2  0
 16 11  1  0
 17 18  2  0
 17 19  2  0
 17 20  1  0
 20 21  1  0
 21 22  1  0
 22 23  1  0
 23 24  1  0
 23 37  1  0
 24 25  1  0
 25 20  1  0
 26 27  2  0
 27  2  1  0
 27  6  1  0
 28 29  2  0
 29 30  1  0
 30 31  1  0
 30 32  2  0
 31 36  1  0
 32 33  1  0
 33 34  2  0
 34 28  1  0
 34 35  1  0
M  END
> <CMPD_CHEMBLID>
CHEMBL250623

> <STANDARD_TYPE>
Ki

> <RELATION>
=

> <STANDARD_VALUE>
4.4

> <STANDARD_UNITS>
nM

> <Molecular_Weight>
510.99582

$$$$

  SciTegic11272012012D

 37 40  0  0  0  0            999 V2000
    1.2861   -0.7425    0.0000 C   0  0
    0.7144   -0.4125    0.0000 N   0  0
    0.7144    0.4125    0.0000 C   0  0
    1.2861    0.7425    0.0000 O   0  0
    0.0000    0.8250    0.0000 C   0  0
   -0.7144    0.4125    0.0000 C   0  0
   -0.7144   -0.4125    0.0000 C   0  0
   -1.4290   -0.8250    0.0000 C   0  0
   -1.4290   -1.6500    0.0000 N   0  0
   -0.7144   -2.0625    0.0000 C   0  0
   -0.7127   -2.8879    0.0000 N   0  0
    0.0027   -3.2997    0.0000 C   0  0
    0.0056   -4.1247    0.0000 C   0  0
    0.7215   -4.5347    0.0000 C   0  0
    1.4345   -4.1197    0.0000 C   0  0
    2.1517   -4.5285    0.0000 N   0  0
    2.8645   -4.1123    0.0000 C   0  0
    2.8610   -3.4523    0.0000 O   0  0
    3.5817   -4.5211    0.0000 C   0  0
    4.2945   -4.1049    0.0000 C   0  0
    5.0116   -4.5136    0.0000 N   0  0
    1.4316   -3.2947    0.0000 C   0  0
    0.7158   -2.8847    0.0000 C   0  0
    0.0000   -1.6500    0.0000 N   0  0
    0.0000   -0.8250    0.0000 C   0  0
    0.0000    1.6504    0.0000 C   0  0
    0.7138    2.0641    0.0000 C   0  0
    1.2859    1.7350    0.0000 Cl  0  0
    0.7125    2.8891    0.0000 C   0  0
   -0.0026    3.3005    0.0000 C   0  0
   -0.7164    2.8868    0.0000 C   0  0
   -0.7151    2.0618    0.0000 C   0  0
   -1.2862    1.7310    0.0000 Cl  0  0
    5.4866   -4.2363    0.0000 H   0  0
    5.0145   -5.0636    0.0000 H   0  0
    2.1545   -5.0785    0.0000 H   0  0
   -1.1886   -3.1638    0.0000 H   0  0
  1  2  1  0
  2  3  1  0
  3  4  2  0
  3  5  1  0
  5  6  2  0
  5 26  1  0
  6  7  1  0
  7  8  2  0
  8  9  1  0
  9 10  2  0
 10 11  1  0
 10 24  1  0
 11 12  1  0
 11 37  1  0
 12 13  2  0
 13 14  1  0
 14 15  2  0
 15 16  1  0
 15 22  1  0
 16 17  1  0
 16 36  1  0
 17 18  2  0
 17 19  1  0
 19 20  1  0
 20 21  1  0
 21 34  1  0
 21 35  1  0
 22 23  2  0
 23 12  1  0
 24 25  2  0
 25  2  1  0
 25  7  1  0
 26 27  2  0
 27 28  1  0
 27 29  1  0
 29 30  2  0
 30 31  1  0
 31 32  2  0
 32 26  1  0
 32 33  1  0
M  END
> <CMPD_CHEMBLID>
CHEMBL566635

> <STANDARD_TYPE>
IC50

> <RELATION>
=

> <STANDARD_VALUE>
4.7

> <STANDARD_UNITS>
nM

> <Molecular_Weight>
483.3499

$$$$

  SciTegic11272012012D

 33 36  0  0  0  0            999 V2000
    1.2861   -0.7425    0.0000 C   0  0
    0.7144   -0.4125    0.0000 N   0  0
    0.7144    0.4125    0.0000 C   0  0
    1.2861    0.7425    0.0000 O   0  0
    0.0000    0.8250    0.0000 C   0  0
   -0.7144    0.4125    0.0000 C   0  0
   -0.7144   -0.4125    0.0000 C   0  0
   -1.4290   -0.8250    0.0000 C   0  0
   -1.4290   -1.6500    0.0000 N   0  0
   -0.7144   -2.0625    0.0000 C   0  0
   -0.7127   -2.8879    0.0000 N   0  0
    0.0027   -3.2997    0.0000 C   0  0
    0.0056   -4.1247    0.0000 C   0  0
    0.7215   -4.5347    0.0000 C   0  0
    1.4345   -4.1197    0.0000 C   0  0
    2.1517   -4.5285    0.0000 N   0  0
    2.8645   -4.1123    0.0000 C   0  0
    3.4379   -4.4391    0.0000 O   0  0
    2.8610   -3.4523    0.0000 C   0  0
    1.4317   -3.2947    0.0000 C   0  0
    0.7158   -2.8847    0.0000 C   0  0
    0.0000   -1.6500    0.0000 N   0  0
    0.0000   -0.8250    0.0000 C   0  0
    0.0000    1.6504    0.0000 C   0  0
    0.7138    2.0641    0.0000 C   0  0
    1.2859    1.7350    0.0000 Cl  0  0
    0.7125    2.8891    0.0000 C   0  0
   -0.0026    3.3005    0.0000 C   0  0
   -0.7164    2.8868    0.0000 C   0  0
   -0.7151    2.0618    0.0000 C   0  0
   -1.2862    1.7310    0.0000 Cl  0  0
    2.1545   -5.0785    0.0000 H   0  0
   -1.1886   -3.1638    0.0000 H   0  0
  1  2  1  0
  2  3  1  0
  3  4  2  0
  3  5  1  0
  5  6  2  0
  5 24  1  0
  6  7  1  0
  7  8  2  0
  8  9  1  0
  9 10  2  0
 10 11  1  0
 10 22  1  0
 11 12  1  0
 11 33  1  0
 12 13  2  0
 13 14  1  0
 14 15  2  0
 15 16  1  0
 15 20  1  0
 16 17  1  0
 16 32  1  0
 17 18  2  0
 17 19  1  0
 20 21  2  0
 21 12  1  0
 22 23  2  0
 23  2  1  0
 23  7  1  0
 24 25  2  0
 25 26  1  0
 25 27  1  0
 27 28  2  0
 28 29  1  0
 29 30  2  0
 30 24  1  0
 30 31  1  0
M  END
> <CMPD_CHEMBLID>
CHEMBL566850

> <STANDARD_TYPE>
IC50

> <RELATION>
=

> <STANDARD_VALUE>
4.8

> <STANDARD_UNITS>
nM

> <Molecular_Weight>
454.30868

$$$$

  SciTegic11272012012D

 45 48  0  0  0  0            999 V2000
    2.1404   -2.7263    0.0000 C   0  0
    2.1413   -2.0663    0.0000 O   0  0
    1.4273   -1.6521    0.0000 C   0  0
    1.4285   -0.8267    0.0000 C   0  0
    0.7144   -0.4125    0.0000 N   0  0
    0.7144    0.4125    0.0000 C   0  0
    0.0000    0.8250    0.0000 C   0  0
   -0.7144    0.4125    0.0000 N   0  0
   -1.4302    0.8237    0.0000 C   0  0
   -2.1444    0.4100    0.0000 C   0  0
   -2.1416   -0.4150    0.0000 C   0  0
   -2.8546   -0.8300    0.0000 C   0  0
   -3.5706   -0.4200    0.0000 C   0  0
   -4.2849   -0.8337    0.0000 N   0  0
   -5.0006   -0.4225    0.0000 C   0  0
   -5.0017    0.2375    0.0000 O   0  0
   -5.7149   -0.8362    0.0000 C   0  0
   -6.4307   -0.4261    0.0000 C   0  0
   -7.1438   -0.8411    0.0000 C   0  0
   -7.1409   -1.6661    0.0000 C   0  0
   -7.7114   -1.9980    0.0000 C   0  0
   -6.4251   -2.0761    0.0000 C   0  0
   -5.7120   -1.6612    0.0000 C   0  0
   -6.4223   -2.9016    0.0000 C   0  0
   -6.4194   -3.7270    0.0000 C   0  0
   -6.4166   -4.5524    0.0000 C   0  0
   -7.0824   -5.0276    0.0000 C   0  0
   -6.8247   -5.8113    0.0000 N   0  0
   -5.9997   -5.8085    0.0000 C   0  0
   -5.5145   -6.4745    0.0000 C   0  0
   -4.8582   -6.4044    0.0000 O   0  0
   -5.8487   -7.2293    0.0000 N   0  0
   -5.7475   -5.0230    0.0000 N   0  0
   -5.1218   -4.8132    0.0000 C   0  0
   -3.5734    0.4050    0.0000 C   0  0
   -2.8604    0.8200    0.0000 C   0  0
   -2.8633    1.6454    0.0000 C   0  0
   -3.4358    1.9738    0.0000 F   0  0
   -2.2927    1.9772    0.0000 F   0  0
   -2.8653    2.3054    0.0000 F   0  0
   -0.7144   -0.4125    0.0000 C   0  0
    0.0000   -0.8250    0.0000 C   0  0
   -5.5248   -7.6738    0.0000 H   0  0
   -6.3956   -7.2877    0.0000 H   0  0
   -4.2839   -1.3837    0.0000 H   0  0
  1  2  1  0
  2  3  1  0
  3  4  1  0
  4  5  1  0
  5  6  1  0
  6  7  1  0
  7  8  1  0
  8  9  1  0
  8 41  1  0
  9 10  1  0
 10 11  2  0
 11 12  1  0
 12 13  2  0
 13 14  1  0
 13 35  1  0
 14 15  1  0
 14 45  1  0
 15 16  2  0
 15 17  1  0
 17 18  2  0
 18 19  1  0
 19 20  2  0
 20 21  1  0
 20 22  1  0
 22 23  2  0
 22 24  1  0
 23 17  1  0
 24 25  3  0
 25 26  1  0
 26 27  2  0
 27 28  1  0
 28 29  2  0
 29 30  1  0
 29 33  1  0
 30 31  2  0
 30 32  1  0
 32 43  1  0
 32 44  1  0
 33 26  1  0
 33 34  1  0
 35 36  2  0
 36 10  1  0
 36 37  1  0
 37 38  1  0
 37 39  1  0
 37 40  1  0
 41 42  1  0
 42  5  1  0
M  END
> <CMPD_CHEMBLID>
CHEMBL1784638

> <STANDARD_TYPE>
IC50

> <RELATION>
=

> <STANDARD_VALUE>
4.8

> <STANDARD_UNITS>
nM

> <Molecular_Weight>
582.61663

$$$$

  SciTegic11272012012D

 37 40  0  0  0  0            999 V2000
    1.2861   -0.7425    0.0000 C   0  0
    0.7144   -0.4125    0.0000 N   0  0
    0.7144    0.4125    0.0000 C   0  0
    1.2861    0.7425    0.0000 O   0  0
    0.0000    0.8250    0.0000 C   0  0
   -0.7144    0.4125    0.0000 C   0  0
   -0.7144   -0.4125    0.0000 C   0  0
   -1.4290   -0.8250    0.0000 C   0  0
   -1.4290   -1.6500    0.0000 N   0  0
   -0.7144   -2.0625    0.0000 C   0  0
   -0.7127   -2.8879    0.0000 N   0  0
    0.0027   -3.2997    0.0000 C   0  0
    0.0056   -4.1247    0.0000 C   0  0
    0.7215   -4.5347    0.0000 C   0  0
    1.4345   -4.1197    0.0000 C   0  0
    1.4316   -3.2947    0.0000 C   0  0
    2.1442   -2.8780    0.0000 C   0  0
    2.1402   -2.0526    0.0000 O   0  0
    2.8528   -1.6360    0.0000 C   0  0
    2.8488   -0.8105    0.0000 C   0  0
    2.1326   -0.4000    0.0000 O   0  0
    3.5614   -0.3939    0.0000 C   0  0
    3.5573    0.4316    0.0000 O   0  0
    0.7158   -2.8847    0.0000 C   0  0
    0.0000   -1.6500    0.0000 N   0  0
    0.0000   -0.8250    0.0000 C   0  0
    0.0000    1.6504    0.0000 C   0  0
    0.7138    2.0641    0.0000 C   0  0
    1.2859    1.7350    0.0000 Cl  0  0
    0.7125    2.8891    0.0000 C   0  0
   -0.0026    3.3005    0.0000 C   0  0
   -0.7164    2.8868    0.0000 C   0  0
   -0.7151    2.0618    0.0000 C   0  0
   -1.2862    1.7310    0.0000 Cl  0  0
    4.0321    0.7092    0.0000 H   0  0
    2.1305    0.1500    0.0000 H   0  0
   -1.1886   -3.1638    0.0000 H   0  0
  1  2  1  0
  2  3  1  0
  3  4  2  0
  3  5  1  0
  5  6  2  0
  5 27  1  0
  6  7  1  0
  7  8  2  0
  8  9  1  0
  9 10  2  0
 10 11  1  0
 10 25  1  0
 11 12  1  0
 11 37  1  0
 12 13  2  0
 13 14  1  0
 14 15  2  0
 15 16  1  0
 16 17  1  0
 16 24  2  0
 17 18  1  0
 18 19  1  0
 19 20  1  0
 20 21  1  0
 20 22  1  0
 21 36  1  0
 22 23  1  0
 23 35  1  0
 24 12  1  0
 25 26  2  0
 26  2  1  0
 26  7  1  0
 27 28  2  0
 28 29  1  0
 28 30  1  0
 30 31  2  0
 31 32  1  0
 32 33  2  0
 33 27  1  0
 33 34  1  0
M  END
> <CMPD_CHEMBLID>
CHEMBL566834

> <STANDARD_TYPE>
IC50

> <RELATION>
=

> <STANDARD_VALUE>
4.9

> <STANDARD_UNITS>
nM

> <Molecular_Weight>
501.36188

$$$$

  SciTegic11272012012D

 29 33  0  0  0  0            999 V2000
    0.8560   -1.9794    0.0000 C   0  0
    1.4281   -1.6503    0.0000 C   0  0
    2.1419   -2.0639    0.0000 C   0  0
    2.8570   -1.6525    0.0000 C   0  0
    2.8584   -0.8275    0.0000 C   0  0
    3.4721   -0.2768    0.0000 N   0  0
    3.1377    0.4774    0.0000 N   0  0
    2.3171    0.3924    0.0000 C   0  0
    2.1446   -0.4139    0.0000 C   0  0
    1.4293   -0.8252    0.0000 C   0  0
    0.7145   -0.4125    0.0000 C   0  0
    0.7145    0.4125    0.0000 C   0  0
    0.0000    0.8250    0.0000 C   0  0
   -0.7145    0.4125    0.0000 C   0  0
   -1.4290    0.8250    0.0000 C   0  0
   -2.1435    0.4125    0.0000 C   0  0
   -2.8592    0.8238    0.0000 N   0  0
   -3.5735    0.4100    0.0000 C   0  0
   -3.5723   -0.2500    0.0000 O   0  0
   -4.2892    0.8213    0.0000 C   0  0
   -4.6582    1.5106    0.0000 C   0  0
   -5.0707    0.7961    0.0000 C   0  0
   -5.6369    0.4571    0.0000 F   0  0
   -2.1435   -0.4125    0.0000 N   0  0
   -1.4290   -0.8250    0.0000 C   0  0
   -0.7145   -0.4125    0.0000 C   0  0
    0.0000   -0.8250    0.0000 C   0  0
   -2.8602    1.3738    0.0000 H   0  0
    4.0099   -0.3921    0.0000 H   0  0
  1  2  1  0
  2  3  2  0
  3  4  1  0
  4  5  2  0
  5  6  1  0
  6  7  1  0
  6 29  1  0
  7  8  2  0
  8  9  1  0
  9  5  1  0
  9 10  2  0
 10  2  1  0
 10 11  1  0
 11 12  2  0
 12 13  1  0
 13 14  2  0
 14 15  1  0
 15 16  2  0
 16 17  1  0
 16 24  1  0
 17 18  1  0
 17 28  1  0
 18 19  2  0
 18 20  1  0
 20 21  1  0
 21 22  1  0
 22 20  1  0
 22 23  1  0
 24 25  2  0
 25 26  1  0
 26 14  1  0
 26 27  2  0
 27 11  1  0
M  END
> <CMPD_CHEMBLID>
CHEMBL3689748

> <STANDARD_TYPE>
Ki

> <RELATION>
=

> <STANDARD_VALUE>
5

> <STANDARD_UNITS>
nM

> <Molecular_Weight>
360.38428

$$$$

  SciTegic11272012012D

 40 44  0  0  0  0            999 V2000
   -2.1091   -6.3283    0.0000 C   0  0
   -1.7500   -5.7746    0.0000 C   0  0
   -2.0220   -5.1732    0.0000 C   0  0
   -1.2849   -5.0932    0.0000 C   0  0
   -0.4622   -5.1552    0.0000 C   0  0
   -0.1047   -5.8988    0.0000 C   0  0
   -0.5698   -6.5801    0.0000 C   0  0
   -0.9547   -7.1163    0.0000 C   0  0
    0.0893   -6.6144    0.0000 C   0  0
   -1.3925   -6.5181    0.0000 N   0  0
   -1.7646   -7.0632    0.0000 O   0  4
    0.0045   -4.4744    0.0000 N   0  0
    0.8275   -4.5377    0.0000 C   0  0
    1.1824   -5.2829    0.0000 O   0  0
    1.2943   -3.8568    0.0000 C   0  0
    2.1170   -3.9189    0.0000 C   0  0
    2.5820   -3.2375    0.0000 C   0  0
    2.2245   -2.4940    0.0000 C   0  0
    1.4045   -2.4327    0.0000 C   0  0
    0.9367   -3.1133    0.0000 C   0  0
    0.9918   -1.7178    0.0000 C   0  0
    1.3273   -0.9642    0.0000 C   0  0
    0.7145   -0.4125    0.0000 C   0  0
    0.7145    0.4125    0.0000 N   0  0
    0.0000    0.8250    0.0000 C   0  0
   -0.7145    0.4125    0.0000 C   0  0
   -0.7145   -0.4125    0.0000 C   0  0
   -1.4302   -0.8238    0.0000 N   0  0
   -2.1445   -0.4100    0.0000 C   0  0
   -2.8604   -0.8200    0.0000 C   0  0
   -3.5735   -0.4051    0.0000 C   0  0
   -3.5706    0.4199    0.0000 C   0  0
   -2.8547    0.8300    0.0000 C   0  0
   -2.8502    1.6554    0.0000 O   0  0
   -2.1416    0.4150    0.0000 C   0  0
    0.0000   -0.8250    0.0000 N   0  0
    0.1713   -1.6316    0.0000 N   0  0
   -2.3725    1.9281    0.0000 H   0  0
   -1.4312   -1.3738    0.0000 H   0  0
    0.8710   -5.7362    0.0000 H   0  0
  1  2  1  0
  2  3  1  0
  2  4  1  0
  4  5  1  0
  5  6  1  0
  5 12  1  0
  6  7  1  0
  7  8  1  0
  7  9  1  0
  7 10  1  0
 10  2  1  0
 10 11  1  0
 12 13  2  0
 13 14  1  0
 13 15  1  0
 14 40  1  0
 15 16  2  0
 16 17  1  0
 17 18  2  0
 18 19  1  0
 19 20  2  0
 19 21  1  0
 20 15  1  0
 21 22  1  0
 22 23  2  0
 23 24  1  0
 24 25  2  0
 25 26  1  0
 26 27  2  0
 27 28  1  0
 27 36  1  0
 28 29  1  0
 28 39  1  0
 29 30  2  0
 30 31  1  0
 31 32  2  0
 32 33  1  0
 33 34  1  0
 33 35  2  0
 34 38  1  0
 35 29  1  0
 36 23  1  0
 36 37  1  0
 37 21  2  0
M  RAD  1  11   2
M  END
> <CMPD_CHEMBLID>
CHEMBL1163016

> <STANDARD_TYPE>
IC50

> <RELATION>
=

> <STANDARD_VALUE>
5

> <STANDARD_UNITS>
nM

> <Molecular_Weight>
499.58414

$$$$

  SciTegic11272012012D

 29 32  0  0  0  0            999 V2000
    0.5229   -3.1659    0.0000 Cl  0  0
   -0.1229   -3.0297    0.0000 C   0  0
   -0.3789   -2.2450    0.0000 C   0  0
    0.1713   -1.6316    0.0000 N   0  0
    0.9918   -1.7178    0.0000 N   0  0
    1.3273   -0.9641    0.0000 C   0  0
    0.7144   -0.4125    0.0000 C   0  0
    0.7144    0.4125    0.0000 C   0  0
    1.4285    0.8267    0.0000 N   0  0
    1.4273    1.6521    0.0000 C   0  0
    2.1413    2.0663    0.0000 C   0  0
    2.8559    1.6539    0.0000 C   0  0
    3.5703    2.0664    0.0000 C   0  0
    3.5703    2.8914    0.0000 C   0  0
    2.8558    3.3039    0.0000 C   0  0
    2.1413    2.8913    0.0000 C   0  0
    1.5698    3.2213    0.0000 Cl  0  0
    0.0000    0.8250    0.0000 N   0  0
   -0.7144    0.4125    0.0000 C   0  0
   -0.7144   -0.4125    0.0000 N   0  0
    0.0000   -0.8250    0.0000 C   0  0
   -0.6741   -3.6442    0.0000 C   0  0
   -0.4193   -4.4289    0.0000 C   0  0
   -0.9714   -5.0419    0.0000 C   0  0
   -1.7784   -4.8702    0.0000 C   0  0
   -2.2201   -5.3606    0.0000 Br  0  0
   -2.0332   -4.0856    0.0000 C   0  0
   -1.4810   -3.4726    0.0000 C   0  0
    1.9053    0.5525    0.0000 H   0  0
  1  2  1  0
  2  3  1  0
  2 22  1  0
  3  4  1  0
  4  5  1  0
  5  6  2  0
  6  7  1  0
  7  8  2  0
  8  9  1  0
  8 18  1  0
  9 10  1  0
  9 29  1  0
 10 11  1  0
 11 12  2  0
 12 13  1  0
 13 14  2  0
 14 15  1  0
 15 16  2  0
 16 11  1  0
 16 17  1  0
 18 19  2  0
 19 20  1  0
 20 21  2  0
 21  4  1  0
 21  7  1  0
 22 23  2  0
 23 24  1  0
 24 25  2  0
 25 26  1  0
 25 27  1  0
 27 28  2  0
 28 22  1  0
M  END
> <CMPD_CHEMBLID>
CHEMBL2397805

> <STANDARD_TYPE>
Ki

> <RELATION>
=

> <STANDARD_VALUE>
5

> <STANDARD_UNITS>
nM

> <Molecular_Weight>
477.18454

$$$$

  SciTegic11272012012D

 40 44  0  0  0  0            999 V2000
    1.2861   -0.7425    0.0000 C   0  0
    0.7144   -0.4125    0.0000 C   0  0
    0.7144    0.4125    0.0000 C   0  0
    0.0000    0.8250    0.0000 C   0  0
   -0.7144    0.4125    0.0000 C   0  0
   -0.7144   -0.4125    0.0000 C   0  0
   -1.4290   -0.8250    0.0000 N   0  0
   -1.4290   -1.6500    0.0000 N   0  0
   -0.7144   -2.0625    0.0000 C   0  0
   -0.7127   -2.8879    0.0000 N   0  0
    0.0027   -3.2997    0.0000 C   0  0
    0.0056   -4.1247    0.0000 C   0  0
    0.7215   -4.5347    0.0000 C   0  0
    1.4345   -4.1197    0.0000 C   0  0
    1.4317   -3.2947    0.0000 C   0  0
    0.7158   -2.8847    0.0000 C   0  0
    2.1508   -4.5300    0.0000 S   0  0
    2.7211   -4.1978    0.0000 O   0  0
    2.7237   -4.8577    0.0000 O   0  0
    2.1542   -5.3554    0.0000 N   0  0
    2.8705   -5.7656    0.0000 C   0  0
    2.8739   -6.5911    0.0000 C   0  0
    3.5902   -7.0014    0.0000 N   0  0
    3.6705   -7.8154    0.0000 C   0  0
    4.4784   -7.9825    0.0000 C   0  0
    4.8870   -7.2657    0.0000 C   0  0
    4.3315   -6.6557    0.0000 C   0  0
    0.0000   -1.6500    0.0000 N   0  0
    0.0000   -0.8250    0.0000 C   0  0
    0.0000    1.6504    0.0000 C   0  0
    0.7138    2.0641    0.0000 C   0  0
    1.4302    1.6540    0.0000 O   0  0
    0.7125    2.8891    0.0000 C   0  0
   -0.0026    3.3005    0.0000 C   0  0
   -0.7164    2.8868    0.0000 C   0  0
   -0.7151    2.0618    0.0000 C   0  0
   -1.2862    1.7310    0.0000 Cl  0  0
    1.9056    1.9305    0.0000 H   0  0
    1.6789   -5.6322    0.0000 H   0  0
   -1.1886   -3.1638    0.0000 H   0  0
  1  2  1  0
  2  3  2  0
  3  4  1  0
  4  5  2  0
  4 30  1  0
  5  6  1  0
  6  7  2  0
  7  8  1  0
  8  9  2  0
  9 10  1  0
  9 28  1  0
 10 11  1  0
 10 40  1  0
 11 12  2  0
 12 13  1  0
 13 14  2  0
 14 15  1  0
 14 17  1  0
 15 16  2  0
 16 11  1  0
 17 18  2  0
 17 19  2  0
 17 20  1  0
 20 21  1  0
 20 39  1  0
 21 22  1  0
 22 23  1  0
 23 24  1  0
 24 25  1  0
 25 26  1  0
 26 27  1  0
 27 23  1  0
 28 29  2  0
 29  2  1  0
 29  6  1  0
 30 31  2  0
 31 32  1  0
 31 33  1  0
 32 38  1  0
 33 34  2  0
 34 35  1  0
 35 36  2  0
 36 30  1  0
 36 37  1  0
M  END
> <CMPD_CHEMBLID>
CHEMBL231220

> <STANDARD_TYPE>
Ki

> <RELATION>
=

> <STANDARD_VALUE>
5

> <STANDARD_UNITS>
nM

> <Molecular_Weight>
539.04898

$$$$

  SciTegic11272012012D

 32 36  0  0  0  0            999 V2000
    2.1455    0.2461    0.0000 C   0  0
    2.1445   -0.4139    0.0000 C   0  0
    2.8583   -0.8275    0.0000 C   0  0
    2.8570   -1.6525    0.0000 C   0  0
    2.1419   -2.0639    0.0000 C   0  0
    2.1408   -2.7239    0.0000 F   0  0
    1.4281   -1.6502    0.0000 C   0  0
    1.4293   -0.8252    0.0000 C   0  0
    0.7144   -0.4125    0.0000 C   0  0
    0.7144    0.4125    0.0000 C   0  0
    0.0000    0.8250    0.0000 C   0  0
    0.0000    1.6500    0.0000 C   0  0
   -0.7145    2.0625    0.0000 N   0  0
   -1.4290    1.6500    0.0000 C   0  0
   -2.1447    2.0612    0.0000 N   0  0
   -2.8590    1.6475    0.0000 C   0  0
   -2.8578    0.9875    0.0000 O   0  0
   -3.5747    2.0588    0.0000 C   0  0
   -4.3561    2.0337    0.0000 C   0  0
   -3.9436    2.7481    0.0000 C   0  0
   -1.4290    0.8250    0.0000 C   0  0
   -0.7144    0.4125    0.0000 C   0  0
   -0.7144   -0.4125    0.0000 C   0  0
   -1.4285   -0.8267    0.0000 N   0  0
   -1.4273   -1.6521    0.0000 C   0  0
   -2.0931   -2.1274    0.0000 C   0  0
   -1.8354   -2.9111    0.0000 C   0  0
   -1.0104   -2.9082    0.0000 C   0  0
   -0.7582   -2.1227    0.0000 C   0  0
    0.0000   -0.8250    0.0000 N   0  0
   -1.9053   -0.5525    0.0000 H   0  0
   -2.1457    2.6112    0.0000 H   0  0
  1  2  1  0
  2  3  2  0
  3  4  1  0
  4  5  2  0
  5  6  1  0
  5  7  1  0
  7  8  2  0
  8  2  1  0
  8  9  1  0
  9 10  2  0
 10 11  1  0
 11 12  2  0
 12 13  1  0
 13 14  2  0
 14 15  1  0
 14 21  1  0
 15 16  1  0
 15 32  1  0
 16 17  2  0
 16 18  1  0
 18 19  1  0
 19 20  1  0
 20 18  1  0
 21 22  2  0
 22 11  1  0
 22 23  1  0
 23 24  1  0
 23 30  2  0
 24 25  1  0
 24 31  1  0
 25 26  1  0
 26 27  1  0
 27 28  1  0
 28 29  1  0
 29 25  1  0
 30  9  1  0
M  END
> <CMPD_CHEMBLID>
CHEMBL3689657

> <STANDARD_TYPE>
Ki

> <RELATION>
=

> <STANDARD_VALUE>
5

> <STANDARD_UNITS>
nM

> <Molecular_Weight>
404.4799

$$$$

  SciTegic11272012012D

 29 32  0  0  0  0            999 V2000
    2.7167   -0.7388    0.0000 C   0  0
    2.1444   -0.4100    0.0000 N   0  0
    1.4302   -0.8237    0.0000 C   0  0
    0.7144   -0.4125    0.0000 C   0  0
    0.7144    0.4125    0.0000 N   0  0
    0.0000    0.8250    0.0000 C   0  0
   -0.7144    0.4125    0.0000 C   0  0
   -0.7144   -0.4125    0.0000 C   0  0
   -1.4290   -0.8250    0.0000 C   0  0
   -1.4290   -1.6500    0.0000 N   0  0
   -0.7144   -2.0625    0.0000 C   0  0
   -0.7127   -2.8879    0.0000 N   0  0
    0.0027   -3.2997    0.0000 C   0  0
    0.5737   -2.9687    0.0000 O   0  0
    0.0044   -4.1251    0.0000 C   0  0
    0.4168   -4.7893    0.0000 C   0  0
   -0.4082   -4.7893    0.0000 C   0  0
    0.0000   -1.6500    0.0000 C   0  0
    0.0000   -0.8250    0.0000 C   0  0
    0.0000    1.6504    0.0000 C   0  0
   -0.7151    2.0618    0.0000 C   0  0
   -0.7164    2.8868    0.0000 C   0  0
   -1.2885    3.2160    0.0000 F   0  0
   -0.0026    3.3005    0.0000 C   0  0
    0.7125    2.8891    0.0000 C   0  0
    0.7138    2.0641    0.0000 C   0  0
    1.2859    1.7350    0.0000 C   0  0
   -1.1886   -3.1638    0.0000 H   0  0
    2.1435    0.1400    0.0000 H   0  0
  1  2  1  0
  2  3  1  0
  2 29  1  0
  3  4  1  0
  4  5  2  0
  5  6  1  0
  6  7  2  0
  6 20  1  0
  7  8  1  0
  8  9  2  0
  9 10  1  0
 10 11  2  0
 11 12  1  0
 11 18  1  0
 12 13  1  0
 12 28  1  0
 13 14  2  0
 13 15  1  0
 15 16  1  0
 16 17  1  0
 17 15  1  0
 18 19  2  0
 19  4  1  0
 19  8  1  0
 20 21  2  0
 21 22  1  0
 22 23  1  0
 22 24  2  0
 24 25  1  0
 25 26  2  0
 26 20  1  0
 26 27  1  0
M  END
> <CMPD_CHEMBLID>
CHEMBL3689674

> <STANDARD_TYPE>
Ki

> <RELATION>
=

> <STANDARD_VALUE>
5

> <STANDARD_UNITS>
nM

> <Molecular_Weight>
364.41604

$$$$

  SciTegic11272012012D

 33 36  0  0  0  0            999 V2000
    1.2861   -0.7425    0.0000 C   0  0
    0.7144   -0.4125    0.0000 N   0  0
    0.7144    0.4125    0.0000 C   0  0
    1.2861    0.7425    0.0000 O   0  0
    0.0000    0.8250    0.0000 C   0  0
   -0.7144    0.4125    0.0000 C   0  0
   -0.7144   -0.4125    0.0000 C   0  0
   -1.4290   -0.8250    0.0000 C   0  0
   -1.4290   -1.6500    0.0000 N   0  0
   -0.7144   -2.0625    0.0000 C   0  0
   -0.7127   -2.8879    0.0000 N   0  0
    0.0027   -3.2997    0.0000 C   0  0
    0.0056   -4.1247    0.0000 C   0  0
    0.7215   -4.5347    0.0000 C   0  0
    1.4345   -4.1197    0.0000 C   0  0
    1.4317   -3.2947    0.0000 C   0  0
    2.1442   -2.8780    0.0000 N   0  0
    2.1402   -2.0526    0.0000 C   0  0
    2.7100   -1.7195    0.0000 O   0  0
    1.5670   -1.7256    0.0000 C   0  0
    0.7158   -2.8847    0.0000 C   0  0
    0.0000   -1.6500    0.0000 N   0  0
    0.0000   -0.8250    0.0000 C   0  0
    0.0000    1.6504    0.0000 C   0  0
    0.7138    2.0641    0.0000 C   0  0
    1.2859    1.7350    0.0000 Cl  0  0
    0.7125    2.8891    0.0000 C   0  0
   -0.0026    3.3005    0.0000 C   0  0
   -0.7164    2.8868    0.0000 C   0  0
   -0.7151    2.0618    0.0000 C   0  0
   -1.2862    1.7310    0.0000 Cl  0  0
    2.6220   -3.1506    0.0000 H   0  0
   -1.1886   -3.1638    0.0000 H   0  0
  1  2  1  0
  2  3  1  0
  3  4  2  0
  3  5  1  0
  5  6  2  0
  5 24  1  0
  6  7  1  0
  7  8  2  0
  8  9  1  0
  9 10  2  0
 10 11  1  0
 10 22  1  0
 11 12  1  0
 11 33  1  0
 12 13  2  0
 13 14  1  0
 14 15  2  0
 15 16  1  0
 16 17  1  0
 16 21  2  0
 17 18  1  0
 17 32  1  0
 18 19  2  0
 18 20  1  0
 21 12  1  0
 22 23  2  0
 23  2  1  0
 23  7  1  0
 24 25  2  0
 25 26  1  0
 25 27  1  0
 27 28  2  0
 28 29  1  0
 29 30  2  0
 30 24  1  0
 30 31  1  0
M  END
> <CMPD_CHEMBLID>
CHEMBL565801

> <STANDARD_TYPE>
IC50

> <RELATION>
=

> <STANDARD_VALUE>
5

> <STANDARD_UNITS>
nM

> <Molecular_Weight>
454.30868

$$$$

  SciTegic11272012012D

 36 39  0  0  0  0            999 V2000
    1.2861   -0.7425    0.0000 C   0  0
    0.7144   -0.4125    0.0000 N   0  0
    0.7144    0.4125    0.0000 C   0  0
    1.2861    0.7425    0.0000 O   0  0
    0.0000    0.8250    0.0000 N   0  0
   -0.7144    0.4125    0.0000 C   0  0
   -0.7144   -0.4125    0.0000 C   0  0
   -1.4290   -0.8250    0.0000 C   0  0
   -1.4290   -1.6500    0.0000 N   0  0
   -0.7144   -2.0625    0.0000 C   0  0
   -0.7127   -2.8879    0.0000 N   0  0
    0.0000   -1.6500    0.0000 N   0  0
    0.0000   -0.8250    0.0000 C   0  0
    0.0000    1.6504    0.0000 C   0  0
   -0.7151    2.0618    0.0000 C   0  0
   -0.7164    2.8868    0.0000 C   0  0
   -1.4311    3.2999    0.0000 N   0  0
   -1.4313    4.1254    0.0000 C   0  0
   -0.8596    4.4553    0.0000 O   0  0
   -2.1459    4.5384    0.0000 C   0  0
   -2.1473    5.3634    0.0000 C   0  0
   -2.8624    5.7748    0.0000 C   0  0
   -3.5762    5.3612    0.0000 C   0  0
   -3.5749    4.5362    0.0000 C   0  0
   -2.8598    4.1248    0.0000 C   0  0
   -4.2891    4.1224    0.0000 C   0  0
   -4.8614    4.4511    0.0000 F   0  0
   -4.2879    3.4624    0.0000 F   0  0
   -4.8600    3.7912    0.0000 F   0  0
   -0.0026    3.3005    0.0000 C   0  0
    0.7125    2.8891    0.0000 C   0  0
    0.7138    2.0641    0.0000 C   0  0
    1.2859    1.7350    0.0000 C   0  0
   -1.9075    3.0250    0.0000 H   0  0
   -0.2361   -3.1623    0.0000 H   0  0
   -1.1886   -3.1638    0.0000 H   0  0
  1  2  1  0
  2  3  1  0
  3  4  2  0
  3  5  1  0
  5  6  1  0
  5 14  1  0
  6  7  1  0
  7  8  2  0
  8  9  1  0
  9 10  2  0
 10 11  1  0
 10 12  1  0
 11 35  1  0
 11 36  1  0
 12 13  2  0
 13  2  1  0
 13  7  1  0
 14 15  2  0
 15 16  1  0
 16 17  1  0
 16 30  2  0
 17 18  1  0
 17 34  1  0
 18 19  2  0
 18 20  1  0
 20 21  2  0
 21 22  1  0
 22 23  2  0
 23 24  1  0
 24 25  2  0
 24 26  1  0
 25 20  1  0
 26 27  1  0
 26 28  1  0
 26 29  1  0
 30 31  1  0
 31 32  2  0
 32 14  1  0
 32 33  1  0
M  END
> <CMPD_CHEMBLID>
CHEMBL459850

> <STANDARD_TYPE>
IC50

> <RELATION>
<

> <STANDARD_VALUE>
5

> <STANDARD_UNITS>
nM

> <Molecular_Weight>
456.42047

$$$$

  SciTegic11272012012D

 26 29  0  0  0  0            999 V2000
    2.1455    0.2461    0.0000 Cl  0  0
    2.1445   -0.4139    0.0000 C   0  0
    2.8583   -0.8275    0.0000 C   0  0
    2.8570   -1.6525    0.0000 C   0  0
    2.1419   -2.0639    0.0000 C   0  0
    1.4281   -1.6502    0.0000 C   0  0
    1.4293   -0.8252    0.0000 C   0  0
    0.7144   -0.4125    0.0000 C   0  0
    0.7144    0.4125    0.0000 C   0  0
    0.0000    0.8250    0.0000 C   0  0
    0.0000    1.6500    0.0000 C   0  0
   -0.7145    2.0625    0.0000 N   0  0
   -1.4290    1.6500    0.0000 C   0  0
   -2.1447    2.0612    0.0000 N   0  0
   -2.8590    1.6475    0.0000 C   0  0
   -2.8578    0.9875    0.0000 O   0  0
   -3.5747    2.0588    0.0000 C   0  0
   -4.3561    2.0337    0.0000 C   0  0
   -3.9436    2.7481    0.0000 C   0  0
   -1.4290    0.8250    0.0000 C   0  0
   -0.7144    0.4125    0.0000 C   0  0
   -0.7144   -0.4125    0.0000 C   0  0
   -1.2861   -0.7425    0.0000 O   0  0
    0.0000   -0.8250    0.0000 N   0  0
    0.0000   -1.3750    0.0000 H   0  0
   -2.1457    2.6112    0.0000 H   0  0
  1  2  1  0
  2  3  2  0
  3  4  1  0
  4  5  2  0
  5  6  1  0
  6  7  2  0
  7  2  1  0
  7  8  1  0
  8  9  2  0
  9 10  1  0
 10 11  2  0
 11 12  1  0
 12 13  2  0
 13 14  1  0
 13 20  1  0
 14 15  1  0
 14 26  1  0
 15 16  2  0
 15 17  1  0
 17 18  1  0
 18 19  1  0
 19 17  1  0
 20 21  2  0
 21 10  1  0
 21 22  1  0
 22 23  2  0
 22 24  1  0
 24  8  1  0
 24 25  1  0
M  END
> <CMPD_CHEMBLID>
CHEMBL3689639

> <STANDARD_TYPE>
Ki

> <RELATION>
=

> <STANDARD_VALUE>
5

> <STANDARD_UNITS>
nM

> <Molecular_Weight>
339.77566

$$$$

  SciTegic11272012012D

 39 43  0  0  0  0            999 V2000
    0.8551   -1.9811    0.0000 C   0  0
    1.4273   -1.6521    0.0000 C   0  0
    2.1413   -2.0663    0.0000 C   0  0
    2.1402   -2.8918    0.0000 N   0  0
    2.8542   -3.3060    0.0000 C   0  0
    3.4263   -2.9770    0.0000 O   0  0
    2.8530   -4.1314    0.0000 C   0  0
    3.5660   -4.5464    0.0000 C   0  0
    3.5632   -5.3714    0.0000 C   0  0
    2.8473   -5.7815    0.0000 C   0  0
    2.8427   -6.6069    0.0000 C   0  0
    2.1259   -7.0162    0.0000 N   0  0
    2.1201   -7.8412    0.0000 C   0  0
    1.4028   -8.2487    0.0000 C   0  0
    0.6912   -7.8313    0.0000 N   0  0
    0.1174   -8.1573    0.0000 C   0  0
    0.6969   -7.0063    0.0000 C   0  0
    1.4142   -6.5987    0.0000 C   0  0
    2.1342   -5.3665    0.0000 C   0  0
    2.1371   -4.5415    0.0000 C   0  0
    1.4285   -0.8267    0.0000 C   0  0
    0.7144   -0.4125    0.0000 C   0  0
    0.7144    0.4125    0.0000 C   0  0
    0.0000    0.8250    0.0000 C   0  0
   -0.7144    0.4125    0.0000 C   0  0
   -1.4289    0.8250    0.0000 C   0  0
   -2.1434    0.4125    0.0000 C   0  0
   -2.8591    0.8237    0.0000 N   0  0
   -3.5734    0.4100    0.0000 C   0  0
   -3.5722   -0.2500    0.0000 O   0  0
   -4.2891    0.8213    0.0000 C   0  0
   -5.0705    0.7961    0.0000 C   0  0
   -4.6580    1.5106    0.0000 C   0  0
   -2.1434   -0.4125    0.0000 N   0  0
   -1.4289   -0.8250    0.0000 C   0  0
   -0.7144   -0.4125    0.0000 C   0  0
    0.0000   -0.8250    0.0000 C   0  0
   -2.8601    1.3737    0.0000 H   0  0
    1.6634   -3.1660    0.0000 H   0  0
  1  2  1  0
  2  3  1  0
  2 21  1  0
  3  4  1  0
  4  5  1  0
  4 39  1  0
  5  6  2  0
  5  7  1  0
  7  8  2  0
  8  9  1  0
  9 10  2  0
 10 11  1  0
 10 19  1  0
 11 12  1  0
 12 13  1  0
 13 14  1  0
 14 15  1  0
 15 16  1  0
 15 17  1  0
 17 18  1  0
 18 12  1  0
 19 20  2  0
 20  7  1  0
 21 22  1  0
 22 23  2  0
 23 24  1  0
 24 25  2  0
 25 26  1  0
 26 27  2  0
 27 28  1  0
 27 34  1  0
 28 29  1  0
 28 38  1  0
 29 30  2  0
 29 31  1  0
 31 32  1  0
 32 33  1  0
 33 31  1  0
 34 35  2  0
 35 36  1  0
 36 25  1  0
 36 37  2  0
 37 22  1  0
M  END
> <CMPD_CHEMBLID>
CHEMBL3685192

> <STANDARD_TYPE>
Ki

> <RELATION>
=

> <STANDARD_VALUE>
5

> <STANDARD_UNITS>
nM

> <Molecular_Weight>
499.64708

$$$$

  SciTegic11272012012D

 22 24  0  0  0  0            999 V2000
    2.1455    0.2461    0.0000 C   0  0
    2.1445   -0.4139    0.0000 C   0  0
    2.8583   -0.8275    0.0000 C   0  0
    2.8570   -1.6525    0.0000 C   0  0
    2.1419   -2.0639    0.0000 N   0  0
    1.4281   -1.6502    0.0000 C   0  0
    1.4293   -0.8252    0.0000 C   0  0
    0.7144   -0.4125    0.0000 C   0  0
    0.7144    0.4125    0.0000 C   0  0
    0.0000    0.8250    0.0000 C   0  0
   -0.7144    0.4125    0.0000 C   0  0
   -1.4290    0.8250    0.0000 C   0  0
   -1.4290    1.6504    0.0000 C   0  0
   -1.4290    2.3104    0.0000 N   0  0
   -2.1434    0.4125    0.0000 C   0  0
   -2.8591    0.8237    0.0000 N   0  0
   -2.1434   -0.4125    0.0000 N   0  0
   -1.4290   -0.8250    0.0000 C   0  0
   -0.7144   -0.4125    0.0000 C   0  0
    0.0000   -0.8250    0.0000 C   0  0
   -3.3350    0.5481    0.0000 H   0  0
   -2.8601    1.3737    0.0000 H   0  0
  1  2  1  0
  2  3  2  0
  3  4  1  0
  4  5  2  0
  5  6  1  0
  6  7  2  0
  7  2  1  0
  7  8  1  0
  8  9  2  0
  9 10  1  0
 10 11  2  0
 11 12  1  0
 12 13  1  0
 12 15  2  0
 13 14  3  0
 15 16  1  0
 15 17  1  0
 16 21  1  0
 16 22  1  0
 17 18  2  0
 18 19  1  0
 19 11  1  0
 19 20  2  0
 20  8  1  0
M  END
> <CMPD_CHEMBLID>
CHEMBL3689619

> <STANDARD_TYPE>
Ki

> <RELATION>
=

> <STANDARD_VALUE>
5

> <STANDARD_UNITS>
nM

> <Molecular_Weight>
260.29328

$$$$

  SciTegic11272012012D

 25 28  0  0  0  0            999 V2000
    2.7131   -1.7392    0.0000 Cl  0  0
    2.1403   -2.0672    0.0000 C   0  0
    2.1375   -2.8922    0.0000 C   0  0
    1.4216   -3.3022    0.0000 C   0  0
    0.7086   -2.8872    0.0000 C   0  0
    0.7114   -2.0622    0.0000 C   0  0
    1.4273   -1.6521    0.0000 C   0  0
    1.4285   -0.8267    0.0000 O   0  0
    0.7144   -0.4125    0.0000 C   0  0
    0.7144    0.4125    0.0000 C   0  0
    0.0000    0.8250    0.0000 C   0  0
   -0.7144    0.4125    0.0000 C   0  0
   -1.4290    0.8250    0.0000 C   0  0
   -2.1434    0.4125    0.0000 C   0  0
   -2.8591    0.8237    0.0000 N   0  0
   -3.5734    0.4100    0.0000 C   0  0
   -3.5722   -0.2500    0.0000 O   0  0
   -4.2891    0.8213    0.0000 C   0  0
   -5.0706    0.7961    0.0000 C   0  0
   -4.6581    1.5106    0.0000 C   0  0
   -2.1434   -0.4125    0.0000 N   0  0
   -1.4290   -0.8250    0.0000 C   0  0
   -0.7144   -0.4125    0.0000 C   0  0
    0.0000   -0.8250    0.0000 C   0  0
   -2.8601    1.3737    0.0000 H   0  0
  1  2  1  0
  2  3  2  0
  3  4  1  0
  4  5  2  0
  5  6  1  0
  6  7  2  0
  7  2  1  0
  7  8  1  0
  8  9  1  0
  9 10  2  0
 10 11  1  0
 11 12  2  0
 12 13  1  0
 13 14  2  0
 14 15  1  0
 14 21  1  0
 15 16  1  0
 15 25  1  0
 16 17  2  0
 16 18  1  0
 18 19  1  0
 19 20  1  0
 20 18  1  0
 21 22  2  0
 22 23  1  0
 23 12  1  0
 23 24  2  0
 24  9  1  0
M  END
> <CMPD_CHEMBLID>
CHEMBL3685105

> <STANDARD_TYPE>
Ki

> <RELATION>
=

> <STANDARD_VALUE>
5

> <STANDARD_UNITS>
nM

> <Molecular_Weight>
338.7876

$$$$

  SciTegic11272012012D

 42 46  0  0  0  0            999 V2000
    1.4276   -1.4867    0.0000 C   0  0
    1.4285   -0.8267    0.0000 N   0  0
    0.7144   -0.4125    0.0000 C   0  0
    0.7144    0.4125    0.0000 N   0  0
    0.0000    0.8250    0.0000 C   0  0
   -0.7144    0.4125    0.0000 C   0  0
   -1.4290    0.8250    0.0000 C   0  0
   -2.1434    0.4125    0.0000 N   0  0
   -2.1434   -0.4125    0.0000 C   0  0
   -2.7150   -0.7425    0.0000 O   0  0
   -1.4290   -0.8250    0.0000 N   0  0
   -1.4290   -1.4850    0.0000 C   0  0
   -0.7144   -0.4125    0.0000 C   0  0
    0.0000   -0.8250    0.0000 N   0  0
   -2.8582    0.8252    0.0000 C   0  0
   -3.5721    0.4116    0.0000 C   0  0
   -4.2872    0.8230    0.0000 C   0  0
   -5.0023    0.4106    0.0000 N   0  0
   -5.7172    0.8232    0.0000 C   0  0
   -5.7171    1.4832    0.0000 O   0  0
   -6.4323    0.4108    0.0000 C   0  0
   -7.1475    0.8221    0.0000 C   0  0
   -7.8613    0.4085    0.0000 C   0  0
   -7.8600   -0.4165    0.0000 C   0  0
   -7.1449   -0.8279    0.0000 C   0  0
   -6.4310   -0.4143    0.0000 C   0  0
   -7.1436   -1.6534    0.0000 C   0  0
   -7.7144   -1.9846    0.0000 F   0  0
   -6.5714   -1.9823    0.0000 F   0  0
   -7.1422   -2.3134    0.0000 F   0  0
   -8.5767    0.8201    0.0000 N   0  0
   -8.6551    1.6343    0.0000 C   0  0
   -9.4626    1.8033    0.0000 N   0  0
   -9.8729    1.0875    0.0000 C   0  0
  -10.5291    1.0165    0.0000 C   0  0
   -9.3189    0.4762    0.0000 C   0  0
   -4.2886    1.6480    0.0000 C   0  0
   -3.5747    2.0616    0.0000 C   0  0
   -2.8596    1.6502    0.0000 C   0  0
   -2.2885    1.9812    0.0000 C   0  0
   -5.0024   -0.1394    0.0000 H   0  0
    1.9053   -0.5525    0.0000 H   0  0
  1  2  1  0
  2  3  1  0
  2 42  1  0
  3  4  2  0
  4  5  1  0
  5  6  2  0
  6  7  1  0
  7  8  1  0
  8  9  1  0
  8 15  1  0
  9 10  2  0
  9 11  1  0
 11 12  1  0
 11 13  1  0
 13  6  1  0
 13 14  2  0
 14  3  1  0
 15 16  2  0
 16 17  1  0
 17 18  1  0
 17 37  2  0
 18 19  1  0
 18 41  1  0
 19 20  2  0
 19 21  1  0
 21 22  2  0
 22 23  1  0
 23 24  2  0
 23 31  1  0
 24 25  1  0
 25 26  2  0
 25 27  1  0
 26 21  1  0
 27 28  1  0
 27 29  1  0
 27 30  1  0
 31 32  1  0
 32 33  2  0
 33 34  1  0
 34 35  1  0
 34 36  2  0
 36 31  1  0
 37 38  1  0
 38 39  2  0
 39 15  1  0
 39 40  1  0
M  END
> <CMPD_CHEMBLID>
CHEMBL485854

> <STANDARD_TYPE>
IC50

> <RELATION>
<

> <STANDARD_VALUE>
5

> <STANDARD_UNITS>
nM

> <Molecular_Weight>
550.53501

$$$$

  SciTegic11272012012D

 25 28  0  0  0  0            999 V2000
    0.1358   -3.2152    0.0000 F   0  0
    0.7086   -2.8872    0.0000 C   0  0
    1.4216   -3.3022    0.0000 C   0  0
    2.1375   -2.8922    0.0000 C   0  0
    2.1403   -2.0672    0.0000 C   0  0
    1.4273   -1.6521    0.0000 C   0  0
    1.4285   -0.8267    0.0000 O   0  0
    0.7144   -0.4125    0.0000 C   0  0
    0.7144    0.4125    0.0000 C   0  0
    0.0000    0.8250    0.0000 C   0  0
   -0.7144    0.4125    0.0000 C   0  0
   -1.4290    0.8250    0.0000 C   0  0
   -2.1434    0.4125    0.0000 C   0  0
   -2.8591    0.8237    0.0000 N   0  0
   -3.5734    0.4100    0.0000 C   0  0
   -3.5722   -0.2500    0.0000 O   0  0
   -4.2891    0.8213    0.0000 C   0  0
   -5.0706    0.7961    0.0000 C   0  0
   -4.6581    1.5106    0.0000 C   0  0
   -2.1434   -0.4125    0.0000 N   0  0
   -1.4290   -0.8250    0.0000 C   0  0
   -0.7144   -0.4125    0.0000 C   0  0
    0.0000   -0.8250    0.0000 C   0  0
    0.7114   -2.0622    0.0000 C   0  0
   -2.8601    1.3737    0.0000 H   0  0
  1  2  1  0
  2  3  2  0
  3  4  1  0
  4  5  2  0
  5  6  1  0
  6  7  1  0
  6 24  2  0
  7  8  1  0
  8  9  2  0
  9 10  1  0
 10 11  2  0
 11 12  1  0
 12 13  2  0
 13 14  1  0
 13 20  1  0
 14 15  1  0
 14 25  1  0
 15 16  2  0
 15 17  1  0
 17 18  1  0
 18 19  1  0
 19 17  1  0
 20 21  2  0
 21 22  1  0
 22 11  1  0
 22 23  2  0
 23  8  1  0
 24  2  1  0
M  END
> <CMPD_CHEMBLID>
CHEMBL3685106

> <STANDARD_TYPE>
Ki

> <RELATION>
=

> <STANDARD_VALUE>
5

> <STANDARD_UNITS>
nM

> <Molecular_Weight>
322.333

$$$$

  SciTegic11272012012D

 32 35  0  0  0  0            999 V2000
    0.1358   -3.2152    0.0000 C   0  0
    0.7086   -2.8872    0.0000 C   0  0
    1.4216   -3.3022    0.0000 C   0  0
    2.1375   -2.8922    0.0000 C   0  0
    2.1403   -2.0672    0.0000 C   0  0
    1.4273   -1.6521    0.0000 C   0  0
    1.4285   -0.8267    0.0000 N   0  0
    0.7144   -0.4125    0.0000 C   0  0
    0.7144    0.4125    0.0000 C   0  0
    0.0000    0.8250    0.0000 C   0  0
    0.0000    1.6500    0.0000 C   0  0
   -0.7145    2.0625    0.0000 C   0  0
   -1.4290    1.6500    0.0000 C   0  0
   -1.4290    0.8250    0.0000 C   0  0
   -0.7144    0.4125    0.0000 C   0  0
   -0.7144   -0.4125    0.0000 C   0  0
    0.0000   -0.8250    0.0000 N   0  0
   -2.1438    2.0627    0.0000 C   0  0
   -2.8576    1.6491    0.0000 C   0  0
   -3.5728    2.0605    0.0000 C   0  0
   -4.1438    1.7295    0.0000 F   0  0
   -3.5741    2.8855    0.0000 C   0  0
   -2.8603    3.2991    0.0000 C   0  0
   -2.1452    2.8877    0.0000 C   0  0
   -1.5741    3.2187    0.0000 C   0  0
    0.7114   -2.0622    0.0000 N   0  0
    2.8509   -3.3074    0.0000 C   0  0
    3.4235   -2.9791    0.0000 C   0  0
    3.4215   -3.6391    0.0000 C   0  0
    2.8486   -4.1328    0.0000 O   0  0
    3.3240   -4.4095    0.0000 H   0  0
    1.9053   -0.5525    0.0000 H   0  0
  1  2  1  0
  2  3  2  0
  3  4  1  0
  4  5  2  0
  4 27  1  0
  5  6  1  0
  6  7  1  0
  6 26  2  0
  7  8  1  0
  7 32  1  0
  8  9  2  0
  9 10  1  0
 10 11  2  0
 11 12  1  0
 12 13  2  0
 13 14  1  0
 13 18  1  0
 14 15  2  0
 15 10  1  0
 15 16  1  0
 16 17  2  0
 17  8  1  0
 18 19  2  0
 19 20  1  0
 20 21  1  0
 20 22  2  0
 22 23  1  0
 23 24  2  0
 24 18  1  0
 24 25  1  0
 26  2  1  0
 27 28  1  0
 27 29  1  0
 27 30  1  0
 30 31  1  0
M  END
> <CMPD_CHEMBLID>
CHEMBL3685153

> <STANDARD_TYPE>
Ki

> <RELATION>
=

> <STANDARD_VALUE>
5

> <STANDARD_UNITS>
nM

> <Molecular_Weight>
401.47596

$$$$

  SciTegic11272012012D

 30 33  0  0  0  0            999 V2000
    0.1358   -3.2152    0.0000 C   0  0
    0.7086   -2.8872    0.0000 C   0  0
    1.4216   -3.3022    0.0000 C   0  0
    2.1375   -2.8922    0.0000 C   0  0
    2.8518   -3.3059    0.0000 C   0  0
    3.5675   -2.8946    0.0000 O   0  0
    2.1403   -2.0672    0.0000 C   0  0
    1.4273   -1.6521    0.0000 C   0  0
    1.4285   -0.8267    0.0000 N   0  0
    0.7144   -0.4125    0.0000 C   0  0
    0.7144    0.4125    0.0000 C   0  0
    0.0000    0.8250    0.0000 C   0  0
    0.0000    1.6500    0.0000 C   0  0
   -0.7145    2.0625    0.0000 C   0  0
   -1.4290    1.6500    0.0000 C   0  0
   -1.4290    0.8250    0.0000 C   0  0
   -0.7144    0.4125    0.0000 C   0  0
   -0.7144   -0.4125    0.0000 C   0  0
    0.0000   -0.8250    0.0000 N   0  0
   -2.1438    2.0627    0.0000 C   0  0
   -2.8576    1.6491    0.0000 C   0  0
   -3.5728    2.0605    0.0000 C   0  0
   -4.1438    1.7295    0.0000 F   0  0
   -3.5741    2.8855    0.0000 C   0  0
   -2.8603    3.2991    0.0000 C   0  0
   -2.1452    2.8877    0.0000 C   0  0
   -1.5741    3.2187    0.0000 C   0  0
    0.7114   -2.0622    0.0000 N   0  0
    1.9053   -0.5525    0.0000 H   0  0
    4.0434   -3.1703    0.0000 H   0  0
  1  2  1  0
  2  3  2  0
  3  4  1  0
  4  5  1  0
  4  7  2  0
  5  6  1  0
  6 30  1  0
  7  8  1  0
  8  9  1  0
  8 28  2  0
  9 10  1  0
  9 29  1  0
 10 11  2  0
 11 12  1  0
 12 13  2  0
 13 14  1  0
 14 15  2  0
 15 16  1  0
 15 20  1  0
 16 17  2  0
 17 12  1  0
 17 18  1  0
 18 19  2  0
 19 10  1  0
 20 21  2  0
 21 22  1  0
 22 23  1  0
 22 24  2  0
 24 25  1  0
 25 26  2  0
 26 20  1  0
 26 27  1  0
 28  2  1  0
M  END
> <CMPD_CHEMBLID>
CHEMBL3685152

> <STANDARD_TYPE>
Ki

> <RELATION>
=

> <STANDARD_VALUE>
5

> <STANDARD_UNITS>
nM

> <Molecular_Weight>
373.4228

$$$$

  SciTegic11272012012D

 26 28  0  0  0  0            999 V2000
    2.7111   -3.2230    0.0000 C   0  0
    2.1402   -2.8918    0.0000 C   0  0
    1.5680   -3.2208    0.0000 C   0  0
    2.1413   -2.0663    0.0000 O   0  0
    1.4273   -1.6521    0.0000 C   0  0
    0.8551   -1.9812    0.0000 O   0  0
    1.4285   -0.8267    0.0000 N   0  0
    0.7144   -0.4125    0.0000 C   0  0
    0.7144    0.4125    0.0000 C   0  0
    0.0000    0.8250    0.0000 C   0  0
    0.0000    1.6500    0.0000 C   0  0
   -0.7145    2.0625    0.0000 C   0  0
   -1.4290    1.6500    0.0000 C   0  0
   -1.4290    0.8250    0.0000 C   0  0
   -0.7144    0.4125    0.0000 C   0  0
   -0.7144   -0.4125    0.0000 C   0  0
    0.0000   -0.8250    0.0000 N   0  0
   -2.1438    2.0627    0.0000 C   0  0
   -2.8576    1.6491    0.0000 C   0  0
   -3.5728    2.0605    0.0000 C   0  0
   -4.1438    1.7295    0.0000 F   0  0
   -3.5741    2.8855    0.0000 C   0  0
   -2.8603    3.2991    0.0000 C   0  0
   -2.1452    2.8877    0.0000 C   0  0
   -1.5741    3.2187    0.0000 C   0  0
    1.9053   -0.5525    0.0000 H   0  0
  1  2  1  0
  2  3  1  0
  2  4  1  0
  4  5  1  0
  5  6  2  0
  5  7  1  0
  7  8  1  0
  7 26  1  0
  8  9  2  0
  9 10  1  0
 10 11  2  0
 11 12  1  0
 12 13  2  0
 13 14  1  0
 13 18  1  0
 14 15  2  0
 15 10  1  0
 15 16  1  0
 16 17  2  0
 17  8  1  0
 18 19  2  0
 19 20  1  0
 20 21  1  0
 20 22  2  0
 22 23  1  0
 23 24  2  0
 24 18  1  0
 24 25  1  0
M  END
> <CMPD_CHEMBLID>
CHEMBL3685142

> <STANDARD_TYPE>
Ki

> <RELATION>
=

> <STANDARD_VALUE>
5

> <STANDARD_UNITS>
nM

> <Molecular_Weight>
338.37546

$$$$

  SciTegic11272012012D

 25 28  0  0  0  0            999 V2000
    2.8763   -1.8711    0.0000 O   0  0
    2.0931   -2.1274    0.0000 C   0  0
    1.8355   -2.9112    0.0000 C   0  0
    1.0105   -2.9083    0.0000 O   0  0
    0.7582   -2.1228    0.0000 C   0  0
    1.4273   -1.6522    0.0000 C   0  0
    1.4285   -0.8267    0.0000 O   0  0
    0.7145   -0.4125    0.0000 C   0  0
    0.7145    0.4125    0.0000 C   0  0
    0.0000    0.8250    0.0000 C   0  0
   -0.7145    0.4125    0.0000 C   0  0
   -1.4290    0.8250    0.0000 C   0  0
   -2.1435    0.4125    0.0000 C   0  0
   -2.8592    0.8238    0.0000 N   0  0
   -3.5735    0.4100    0.0000 C   0  0
   -3.5723   -0.2500    0.0000 O   0  0
   -4.2892    0.8213    0.0000 C   0  0
   -5.0707    0.7961    0.0000 C   0  0
   -4.6582    1.5106    0.0000 C   0  0
   -2.1435   -0.4125    0.0000 N   0  0
   -1.4290   -0.8250    0.0000 C   0  0
   -0.7145   -0.4125    0.0000 C   0  0
    0.0000   -0.8250    0.0000 C   0  0
   -2.8602    1.3738    0.0000 H   0  0
    3.2860   -2.2380    0.0000 H   0  0
  1  2  1  0
  1 25  1  0
  2  3  1  0
  3  4  1  0
  4  5  1  0
  5  6  1  0
  6  2  1  0
  6  7  1  0
  7  8  1  0
  8  9  2  0
  9 10  1  0
 10 11  2  0
 11 12  1  0
 12 13  2  0
 13 14  1  0
 13 20  1  0
 14 15  1  0
 14 24  1  0
 15 16  2  0
 15 17  1  0
 17 18  1  0
 18 19  1  0
 19 17  1  0
 20 21  2  0
 21 22  1  0
 22 11  1  0
 22 23  2  0
 23  8  1  0
M  END
> <CMPD_CHEMBLID>
CHEMBL3689556

> <STANDARD_TYPE>
Ki

> <RELATION>
=

> <STANDARD_VALUE>
5

> <STANDARD_UNITS>
nM

> <Molecular_Weight>
314.33582

$$$$

  SciTegic11272012012D

 34 38  0  0  0  0            999 V2000
    2.8469   -3.9688    0.0000 C   0  0
    2.8501   -3.3089    0.0000 C   0  0
    2.1375   -2.8922    0.0000 C   0  0
    2.1403   -2.0672    0.0000 C   0  0
    1.4273   -1.6521    0.0000 C   0  0
    1.4285   -0.8267    0.0000 N   0  0
    0.7144   -0.4125    0.0000 C   0  0
    0.7144    0.4125    0.0000 C   0  0
    0.0000    0.8250    0.0000 C   0  0
    0.0000    1.6500    0.0000 C   0  0
   -0.7145    2.0625    0.0000 C   0  0
   -1.4290    1.6500    0.0000 C   0  0
   -1.4290    0.8250    0.0000 C   0  0
   -0.7144    0.4125    0.0000 C   0  0
   -0.7144   -0.4125    0.0000 C   0  0
    0.0000   -0.8250    0.0000 N   0  0
   -2.1438    2.0627    0.0000 C   0  0
   -2.1452    2.8877    0.0000 C   0  0
   -1.5741    3.2187    0.0000 Cl  0  0
   -2.8603    3.2991    0.0000 C   0  0
   -3.5741    2.8855    0.0000 C   0  0
   -3.5728    2.0605    0.0000 C   0  0
   -2.8576    1.6491    0.0000 C   0  0
   -2.8566    0.9891    0.0000 Cl  0  0
    0.7114   -2.0622    0.0000 N   0  0
    0.7086   -2.8872    0.0000 C   0  0
    1.4216   -3.3022    0.0000 N   0  0
   -0.0077   -3.2975    0.0000 N   0  0
   -0.7214   -2.8836    0.0000 C   0  0
   -1.4367   -3.2948    0.0000 C   0  0
   -1.4382   -4.1198    0.0000 O   0  0
   -0.7245   -4.5336    0.0000 C   0  0
   -0.0093   -4.1225    0.0000 C   0  0
    1.9053   -0.5525    0.0000 H   0  0
  1  2  1  0
  2  3  1  0
  3  4  2  0
  4  5  1  0
  5  6  1  0
  5 25  2  0
  6  7  1  0
  6 34  1  0
  7  8  2  0
  8  9  1  0
  9 10  2  0
 10 11  1  0
 11 12  2  0
 12 13  1  0
 12 17  1  0
 13 14  2  0
 14  9  1  0
 14 15  1  0
 15 16  2  0
 16  7  1  0
 17 18  2  0
 18 19  1  0
 18 20  1  0
 20 21  2  0
 21 22  1  0
 22 23  2  0
 23 17  1  0
 23 24  1  0
 25 26  1  0
 26 27  2  0
 26 28  1  0
 27  3  1  0
 28 29  1  0
 29 30  1  0
 30 31  1  0
 31 32  1  0
 32 33  1  0
 33 28  1  0
M  END
> <CMPD_CHEMBLID>
CHEMBL3689711

> <STANDARD_TYPE>
Ki

> <RELATION>
=

> <STANDARD_VALUE>
5.02

> <STANDARD_UNITS>
nM

> <Molecular_Weight>
480.38902

$$$$

  SciTegic11272012012D

 43 47  0  0  0  0            999 V2000
    1.2861   -0.7425    0.0000 C   0  0
    0.7144   -0.4125    0.0000 N   0  0
    0.7144    0.4125    0.0000 C   0  0
    0.0000    0.8250    0.0000 C   0  0
   -0.7144    0.4125    0.0000 N   0  0
   -1.4302    0.8237    0.0000 C   0  0
   -2.1444    0.4100    0.0000 C   0  0
   -2.1416   -0.4150    0.0000 C   0  0
   -2.8546   -0.8300    0.0000 C   0  0
   -3.5706   -0.4200    0.0000 C   0  0
   -3.5734    0.4050    0.0000 C   0  0
   -2.8604    0.8200    0.0000 C   0  0
   -2.8633    1.6454    0.0000 C   0  0
   -3.4358    1.9738    0.0000 F   0  0
   -2.2927    1.9772    0.0000 F   0  0
   -2.8653    2.3054    0.0000 F   0  0
   -4.2849   -0.8337    0.0000 C   0  0
   -4.2837   -1.4937    0.0000 O   0  0
   -5.0006   -0.4225    0.0000 N   0  0
   -5.7149   -0.8362    0.0000 C   0  0
   -6.4307   -0.4261    0.0000 C   0  0
   -7.1438   -0.8411    0.0000 C   0  0
   -7.1409   -1.6661    0.0000 C   0  0
   -7.7114   -1.9980    0.0000 C   0  0
   -6.4251   -2.0761    0.0000 C   0  0
   -6.4206   -2.9016    0.0000 N   0  0
   -5.7037   -3.3108    0.0000 C   0  0
   -5.6980   -4.1358    0.0000 N   0  0
   -4.9807   -4.5434    0.0000 C   0  0
   -4.2691   -4.1260    0.0000 C   0  0
   -4.2747   -3.3010    0.0000 C   0  0
   -4.9920   -2.8934    0.0000 N   0  0
   -3.5628   -2.8834    0.0000 C   0  0
   -2.8448   -3.2898    0.0000 C   0  0
   -2.1338   -2.8712    0.0000 C   0  0
   -2.1408   -2.0463    0.0000 C   0  0
   -2.8588   -1.6398    0.0000 N   0  0
   -3.5697   -2.0584    0.0000 C   0  0
   -5.7120   -1.6612    0.0000 C   0  0
   -0.7144   -0.4125    0.0000 C   0  0
    0.0000   -0.8250    0.0000 C   0  0
   -6.8954   -3.1790    0.0000 H   0  0
   -5.0015    0.1275    0.0000 H   0  0
  1  2  1  0
  2  3  1  0
  3  4  1  0
  4  5  1  0
  5  6  1  0
  5 40  1  0
  6  7  1  0
  7  8  2  0
  8  9  1  0
  9 10  2  0
 10 11  1  0
 10 17  1  0
 11 12  2  0
 12  7  1  0
 12 13  1  0
 13 14  1  0
 13 15  1  0
 13 16  1  0
 17 18  2  0
 17 19  1  0
 19 20  1  0
 19 43  1  0
 20 21  2  0
 21 22  1  0
 22 23  2  0
 23 24  1  0
 23 25  1  0
 25 26  1  0
 25 39  2  0
 26 27  1  0
 26 42  1  0
 27 28  2  0
 28 29  1  0
 29 30  2  0
 30 31  1  0
 31 32  2  0
 31 33  1  0
 32 27  1  0
 33 34  2  0
 34 35  1  0
 35 36  2  0
 36 37  1  0
 37 38  2  0
 38 33  1  0
 39 20  1  0
 40 41  1  0
 41  2  1  0
M  END
> <CMPD_CHEMBLID>
CHEMBL203343

> <STANDARD_TYPE>
IC50

> <RELATION>
=

> <STANDARD_VALUE>
5.1

> <STANDARD_UNITS>
nM

> <Molecular_Weight>
561.60071

$$$$

  SciTegic11272012012D

 41 45  0  0  0  0            999 V2000
    0.1322   -4.2065    0.0000 C   0  0
    0.7027   -4.5383    0.0000 N   0  0
    0.6999   -5.3638    0.0000 C   0  0
   -0.0162   -5.7745    0.0000 C   0  0
   -0.0190   -6.5999    0.0000 N   0  0
   -0.7340   -7.0115    0.0000 C   0  0
   -0.7352   -7.8365    0.0000 C   0  0
   -0.0213   -8.2500    0.0000 O   0  0
    0.6937   -7.8385    0.0000 C   0  0
    0.6949   -7.0135    0.0000 C   0  0
    1.4187   -4.1276    0.0000 S   0  0
    1.4168   -4.7876    0.0000 O   0  0
    1.9893   -4.4594    0.0000 O   0  0
    1.4216   -3.3022    0.0000 C   0  0
    2.1375   -2.8922    0.0000 C   0  0
    2.1403   -2.0672    0.0000 C   0  0
    1.4273   -1.6521    0.0000 C   0  0
    1.4285   -0.8267    0.0000 N   0  0
    0.7144   -0.4125    0.0000 C   0  0
    0.7144    0.4125    0.0000 N   0  0
    0.0000    0.8250    0.0000 N   0  0
   -0.7144    0.4125    0.0000 C   0  0
   -1.4289    0.8250    0.0000 C   0  0
   -2.1434    0.4125    0.0000 C   0  0
   -2.1434   -0.4125    0.0000 C   0  0
   -1.4289   -0.8250    0.0000 C   0  0
   -1.4289   -1.4850    0.0000 C   0  0
   -0.7144   -0.4125    0.0000 C   0  0
    0.0000   -0.8250    0.0000 N   0  0
   -2.8582    0.8252    0.0000 C   0  0
   -3.5721    0.4116    0.0000 C   0  0
   -4.2872    0.8230    0.0000 C   0  0
   -5.0023    0.4106    0.0000 O   0  0
   -4.2885    1.6480    0.0000 C   0  0
   -3.5747    2.0616    0.0000 C   0  0
   -2.8596    1.6502    0.0000 C   0  0
   -2.2885    1.9811    0.0000 Cl  0  0
    0.7114   -2.0622    0.0000 C   0  0
    0.7086   -2.8872    0.0000 C   0  0
   -5.4786    0.6855    0.0000 H   0  0
    1.9053   -0.5525    0.0000 H   0  0
  1  2  1  0
  2  3  1  0
  2 11  1  0
  3  4  1  0
  4  5  1  0
  5  6  1  0
  6  7  1  0
  7  8  1  0
  8  9  1  0
  9 10  1  0
 10  5  1  0
 11 12  2  0
 11 13  2  0
 11 14  1  0
 14 15  2  0
 15 16  1  0
 16 17  2  0
 17 18  1  0
 17 38  1  0
 18 19  1  0
 18 41  1  0
 19 20  2  0
 20 21  1  0
 21 22  2  0
 22 23  1  0
 23 24  2  0
 24 25  1  0
 24 30  1  0
 25 26  2  0
 26 27  1  0
 26 28  1  0
 28 22  1  0
 28 29  2  0
 29 19  1  0
 30 31  2  0
 31 32  1  0
 32 33  1  0
 32 34  2  0
 33 40  1  0
 34 35  1  0
 35 36  2  0
 36 30  1  0
 36 37  1  0
 38 39  2  0
 39 14  1  0
M  END
> <CMPD_CHEMBLID>
CHEMBL250423

> <STANDARD_TYPE>
Ki

> <RELATION>
=

> <STANDARD_VALUE>
5.1

> <STANDARD_UNITS>
nM

> <Molecular_Weight>
569.07496

$$$$

  SciTegic11272012012D

 25 27  0  0  0  0            999 V2000
    2.5619   -3.0003    0.0000 C   0  0
    2.2308   -2.4294    0.0000 O   0  0
    1.4053   -2.4306    0.0000 C   0  0
    1.0763   -3.0028    0.0000 O   0  0
    0.9918   -1.7178    0.0000 C   0  0
    1.3273   -0.9642    0.0000 C   0  0
    0.7145   -0.4125    0.0000 C   0  0
    0.7145    0.4125    0.0000 C   0  0
    0.0000    0.8250    0.0000 C   0  0
   -0.0017    1.6505    0.0000 N   0  0
   -0.7172    2.0622    0.0000 C   0  0
   -0.7189    2.8876    0.0000 C   0  0
   -1.4334    3.3002    0.0000 C   0  0
   -2.0049    2.9702    0.0000 Cl  0  0
   -1.4334    4.1252    0.0000 C   0  0
   -0.7189    4.5377    0.0000 C   0  0
   -0.0044    4.1252    0.0000 C   0  0
   -0.0044    3.3002    0.0000 C   0  0
    0.5672    2.9703    0.0000 Cl  0  0
   -0.7145    0.4125    0.0000 C   0  0
   -0.7145   -0.4125    0.0000 N   0  0
    0.0000   -0.8250    0.0000 C   0  0
    0.1713   -1.6316    0.0000 N   0  0
   -0.1967   -2.0403    0.0000 H   0  0
    0.4741    1.9263    0.0000 H   0  0
  1  2  1  0
  2  3  1  0
  3  4  2  0
  3  5  1  0
  5  6  2  0
  6  7  1  0
  7  8  2  0
  8  9  1  0
  9 10  1  0
  9 20  2  0
 10 11  1  0
 10 25  1  0
 11 12  1  0
 12 13  2  0
 13 14  1  0
 13 15  1  0
 15 16  2  0
 16 17  1  0
 17 18  2  0
 18 12  1  0
 18 19  1  0
 20 21  1  0
 21 22  2  0
 22  7  1  0
 22 23  1  0
 23  5  1  0
 23 24  1  0
M  END
> <CMPD_CHEMBLID>
CHEMBL3347468

> <STANDARD_TYPE>
IC50

> <RELATION>
=

> <STANDARD_VALUE>
5.3

> <STANDARD_UNITS>
nM

> <Molecular_Weight>
350.19932

$$$$

  SciTegic11272012012D

 39 44  0  0  0  0            999 V2000
   -8.0925    0.7225    0.0000 C   0  0
   -7.8909    0.0941    0.0000 N   0  0
   -8.4451   -0.5169    0.0000 C   0  0
   -8.1931   -1.3025    0.0000 C   0  0
   -7.3868   -1.4771    0.0000 N   0  0
   -7.1330   -2.2625    0.0000 C   0  0
   -6.3260   -2.4360    0.0000 C   0  0
   -5.7738   -1.8230    0.0000 C   0  0
   -4.9669   -1.9947    0.0000 C   0  0
   -4.7120   -2.7794    0.0000 C   0  0
   -3.9050   -2.9528    0.0000 N   0  0
   -3.6512   -3.7383    0.0000 C   0  0
   -4.0938   -4.2279    0.0000 O   0  0
   -2.8442   -3.9117    0.0000 C   0  0
   -2.5894   -4.6964    0.0000 C   0  0
   -1.7825   -4.8681    0.0000 C   0  0
   -1.2303   -4.2551    0.0000 C   0  0
   -0.5848   -4.3925    0.0000 C   0  0
   -1.4851   -3.4705    0.0000 C   0  0
   -2.2921   -3.2988    0.0000 C   0  0
   -0.9327   -2.8571    0.0000 C   0  0
   -0.3802   -2.2438    0.0000 C   0  0
    0.1713   -1.6316    0.0000 C   0  0
    0.9918   -1.7178    0.0000 C   0  0
    1.3273   -0.9641    0.0000 N   0  0
    0.7144   -0.4125    0.0000 C   0  0
    0.7144    0.4125    0.0000 C   0  0
    0.0000    0.8250    0.0000 C   0  0
   -0.7144    0.4125    0.0000 C   0  0
   -0.7144   -0.4125    0.0000 N   0  0
    0.0000   -0.8250    0.0000 N   0  0
   -5.2643   -3.3924    0.0000 C   0  0
   -6.0712   -3.2207    0.0000 C   0  0
   -6.6237   -3.8339    0.0000 C   0  0
   -6.7629   -4.6033    0.0000 C   0  0
   -7.3750   -4.0502    0.0000 C   0  0
   -6.8325   -0.8660    0.0000 C   0  0
   -7.0846   -0.0804    0.0000 C   0  0
   -3.5362   -2.5448    0.0000 H   0  0
  1  2  1  0
  2  3  1  0
  3  4  1  0
  4  5  1  0
  5  6  1  0
  5 37  1  0
  6  7  1  0
  7  8  2  0
  8  9  1  0
  9 10  2  0
 10 11  1  0
 10 32  1  0
 11 12  1  0
 11 39  1  0
 12 13  2  0
 12 14  1  0
 14 15  2  0
 15 16  1  0
 16 17  2  0
 17 18  1  0
 17 19  1  0
 19 20  2  0
 19 21  1  0
 20 14  1  0
 21 22  3  0
 22 23  1  0
 23 24  2  0
 24 25  1  0
 25 26  2  0
 26 27  1  0
 27 28  2  0
 28 29  1  0
 29 30  2  0
 30 31  1  0
 31 23  1  0
 31 26  1  0
 32 33  2  0
 33  7  1  0
 33 34  1  0
 34 35  1  0
 35 36  1  0
 36 34  1  0
 37 38  1  0
 38  2  1  0
M  END
> <CMPD_CHEMBLID>
CHEMBL1172719

> <STANDARD_TYPE>
IC50

> <RELATION>
=

> <STANDARD_VALUE>
5.3

> <STANDARD_UNITS>
nM

> <Molecular_Weight>
504.62538

$$$$

  SciTegic11272012012D

 30 33  0  0  0  0            999 V2000
    1.2861   -0.7425    0.0000 C   0  0
    0.7144   -0.4125    0.0000 N   0  0
    0.7144    0.4125    0.0000 C   0  0
    1.2861    0.7425    0.0000 O   0  0
    0.0000    0.8250    0.0000 C   0  0
   -0.7144    0.4125    0.0000 C   0  0
   -0.7144   -0.4125    0.0000 C   0  0
   -1.4290   -0.8250    0.0000 C   0  0
   -1.4290   -1.6500    0.0000 N   0  0
   -0.7144   -2.0625    0.0000 C   0  0
   -0.7127   -2.8879    0.0000 N   0  0
    0.0027   -3.2997    0.0000 C   0  0
    0.0056   -4.1247    0.0000 C   0  0
    0.7215   -4.5347    0.0000 C   0  0
    1.4345   -4.1197    0.0000 C   0  0
    2.1517   -4.5285    0.0000 O   0  0
    1.4317   -3.2947    0.0000 C   0  0
    0.7158   -2.8847    0.0000 C   0  0
    0.0000   -1.6500    0.0000 N   0  0
    0.0000   -0.8250    0.0000 C   0  0
    0.0000    1.6504    0.0000 C   0  0
    0.7138    2.0641    0.0000 C   0  0
    1.2859    1.7350    0.0000 Cl  0  0
    0.7125    2.8891    0.0000 C   0  0
   -0.0026    3.3005    0.0000 C   0  0
   -0.7164    2.8868    0.0000 C   0  0
   -0.7151    2.0618    0.0000 C   0  0
   -1.2862    1.7310    0.0000 Cl  0  0
    2.6266   -4.2512    0.0000 H   0  0
   -1.1886   -3.1638    0.0000 H   0  0
  1  2  1  0
  2  3  1  0
  3  4  2  0
  3  5  1  0
  5  6  2  0
  5 21  1  0
  6  7  1  0
  7  8  2  0
  8  9  1  0
  9 10  2  0
 10 11  1  0
 10 19  1  0
 11 12  1  0
 11 30  1  0
 12 13  2  0
 13 14  1  0
 14 15  2  0
 15 16  1  0
 15 17  1  0
 16 29  1  0
 17 18  2  0
 18 12  1  0
 19 20  2  0
 20  2  1  0
 20  7  1  0
 21 22  2  0
 22 23  1  0
 22 24  1  0
 24 25  2  0
 25 26  1  0
 26 27  2  0
 27 21  1  0
 27 28  1  0
M  END
> <CMPD_CHEMBLID>
CHEMBL323405

> <STANDARD_TYPE>
IC50

> <RELATION>
=

> <STANDARD_VALUE>
5.3

> <STANDARD_UNITS>
nM

> <Molecular_Weight>
413.25676

$$$$

  SciTegic11272012012D

 43 48  0  0  0  0            999 V2000
   -2.8059   -3.7641    0.0000 C   0  0
   -2.1727   -3.9505    0.0000 C   0  0
   -2.0178   -4.5921    0.0000 C   0  0
   -1.5745   -3.3817    0.0000 N   0  0
   -0.7828   -3.6135    0.0000 C   0  0
   -0.1861   -3.0438    0.0000 C   0  0
   -0.3810   -2.2449    0.0000 N   0  0
   -1.1730   -2.0103    0.0000 C   0  0
   -1.7696   -2.5800    0.0000 C   0  0
    0.1713   -1.6316    0.0000 C   0  0
    0.9918   -1.7178    0.0000 C   0  0
    1.3273   -0.9641    0.0000 C   0  0
    0.7144   -0.4125    0.0000 C   0  0
    0.7144    0.4125    0.0000 C   0  0
    0.0000    0.8250    0.0000 C   0  0
   -0.7144    0.4125    0.0000 C   0  0
   -0.7144   -0.4125    0.0000 C   0  0
    0.0000   -0.8250    0.0000 C   0  0
   -0.0017    1.6504    0.0000 C   0  0
    0.5693    1.9814    0.0000 O   0  0
   -0.7171    2.0622    0.0000 N   0  0
   -0.7188    2.8876    0.0000 C   0  0
   -1.4334    3.3002    0.0000 C   0  0
   -1.4334    4.1252    0.0000 C   0  0
   -0.7189    4.5377    0.0000 C   0  0
   -0.7189    5.1977    0.0000 C   0  0
   -0.0044    4.1252    0.0000 C   0  0
    0.7113    4.5365    0.0000 N   0  0
    1.4256    4.1227    0.0000 C   0  0
    2.1415    4.5328    0.0000 N   0  0
    2.8546    4.1178    0.0000 C   0  0
    2.8517    3.2928    0.0000 C   0  0
    2.1358    2.8828    0.0000 C   0  0
    1.4228    3.2977    0.0000 N   0  0
    2.1330    2.0573    0.0000 C   0  0
    2.8454    1.6412    0.0000 C   0  0
    2.8412    0.8162    0.0000 C   0  0
    2.1248    0.4073    0.0000 C   0  0
    1.4123    0.8234    0.0000 N   0  0
    1.4165    1.6484    0.0000 C   0  0
   -0.0044    3.3002    0.0000 C   0  0
    0.7122    5.0865    0.0000 H   0  0
   -1.1930    1.7863    0.0000 H   0  0
  1  2  1  0
  2  3  1  0
  2  4  1  0
  4  5  1  0
  5  6  1  0
  6  7  1  0
  7  8  1  0
  7 10  1  0
  8  9  1  0
  9  4  1  0
 10 11  1  0
 11 12  1  0
 12 13  1  0
 13 14  2  0
 14 15  1  0
 15 16  2  0
 15 19  1  0
 16 17  1  0
 17 18  2  0
 18 10  1  0
 18 13  1  0
 19 20  2  0
 19 21  1  0
 21 22  1  0
 21 43  1  0
 22 23  2  0
 23 24  1  0
 24 25  2  0
 25 26  1  0
 25 27  1  0
 27 28  1  0
 27 41  2  0
 28 29  1  0
 28 42  1  0
 29 30  2  0
 30 31  1  0
 31 32  2  0
 32 33  1  0
 33 34  2  0
 33 35  1  0
 34 29  1  0
 35 36  2  0
 36 37  1  0
 37 38  2  0
 38 39  1  0
 39 40  2  0
 40 35  1  0
 41 22  1  0
M  END
> <CMPD_CHEMBLID>
CHEMBL3690076

> <STANDARD_TYPE>
IC50

> <RELATION>
=

> <STANDARD_VALUE>
5.4

> <STANDARD_UNITS>
nM

> <Molecular_Weight>
547.69318

$$$$

  SciTegic11272012012D

 24 26  0  0  0  0            999 V2000
   -0.1742   -2.8725    0.0000 C   0  0
   -0.3790   -2.2450    0.0000 C   0  0
   -1.0247   -2.1088    0.0000 C   0  0
    0.1713   -1.6316    0.0000 N   0  0
    0.9918   -1.7179    0.0000 N   0  0
    1.3273   -0.9642    0.0000 C   0  0
    2.1348   -0.7925    0.0000 C   0  0
    2.7291   -1.3607    0.0000 C   0  0
    3.5209   -1.1288    0.0000 C   0  0
    3.7159   -0.3272    0.0000 C   0  0
    4.3494   -0.1417    0.0000 Cl  0  0
    3.1193    0.2426    0.0000 C   0  0
    3.3128    1.0450    0.0000 O   0  0
    2.3275    0.0107    0.0000 C   0  0
    0.7145   -0.4125    0.0000 C   0  0
    0.7145    0.4125    0.0000 C   0  0
    1.4285    0.8267    0.0000 N   0  0
    0.0000    0.8250    0.0000 N   0  0
   -0.7145    0.4125    0.0000 C   0  0
   -0.7145   -0.4125    0.0000 N   0  0
    0.0000   -0.8250    0.0000 C   0  0
    1.4277    1.3767    0.0000 H   0  0
    1.9053    0.5525    0.0000 H   0  0
    2.9145    1.4243    0.0000 H   0  0
  1  2  1  0
  2  3  1  0
  2  4  1  0
  4  5  1  0
  5  6  2  0
  6  7  1  0
  6 15  1  0
  7  8  2  0
  8  9  1  0
  9 10  2  0
 10 11  1  0
 10 12  1  0
 12 13  1  0
 12 14  2  0
 13 24  1  0
 14  7  1  0
 15 16  2  0
 16 17  1  0
 16 18  1  0
 17 22  1  0
 17 23  1  0
 18 19  2  0
 19 20  1  0
 20 21  2  0
 21  4  1  0
 21 15  1  0
M  END
> <CMPD_CHEMBLID>
CHEMBL1241484

> <STANDARD_TYPE>
IC50

> <RELATION>
=

> <STANDARD_VALUE>
5.5

> <STANDARD_UNITS>
nM

> <Molecular_Weight>
303.74686

$$$$

  SciTegic11272012012D

 23 26  0  0  0  0            999 V2000
    0.8551   -1.9812    0.0000 O   0  0
    1.4273   -1.6521    0.0000 C   0  0
    1.4285   -0.8267    0.0000 N   0  0
    0.7144   -0.4125    0.0000 C   0  0
    0.7144    0.4125    0.0000 C   0  0
    0.0000    0.8250    0.0000 C   0  0
    0.0000    1.6500    0.0000 C   0  0
   -0.7145    2.0625    0.0000 C   0  0
   -1.4290    1.6500    0.0000 C   0  0
   -1.4290    0.8250    0.0000 C   0  0
   -0.7144    0.4125    0.0000 C   0  0
   -0.7144   -0.4125    0.0000 C   0  0
    0.0000   -0.8250    0.0000 N   0  0
   -2.1438    2.0627    0.0000 C   0  0
   -2.1452    2.8877    0.0000 C   0  0
   -2.8603    3.2991    0.0000 C   0  0
   -3.5741    2.8855    0.0000 N   0  0
   -3.5728    2.0605    0.0000 C   0  0
   -2.8576    1.6491    0.0000 C   0  0
    2.1413   -2.0663    0.0000 C   0  0
    2.5103   -2.7557    0.0000 C   0  0
    2.9228   -2.0412    0.0000 C   0  0
    1.9053   -0.5525    0.0000 H   0  0
  1  2  2  0
  2  3  1  0
  2 20  1  0
  3  4  1  0
  3 23  1  0
  4  5  2  0
  5  6  1  0
  6  7  2  0
  7  8  1  0
  8  9  2  0
  9 10  1  0
  9 14  1  0
 10 11  2  0
 11  6  1  0
 11 12  1  0
 12 13  2  0
 13  4  1  0
 14 15  2  0
 15 16  1  0
 16 17  2  0
 17 18  1  0
 18 19  2  0
 19 14  1  0
 20 21  1  0
 21 22  1  0
 22 20  1  0
M  END
> <CMPD_CHEMBLID>
CHEMBL3689703

> <STANDARD_TYPE>
Ki

> <RELATION>
=

> <STANDARD_VALUE>
5.65

> <STANDARD_UNITS>
nM

> <Molecular_Weight>
289.3312

$$$$

  SciTegic11272012012D

 38 41  0  0  0  0            999 V2000
    6.2869    0.5129    0.0000 C   0  0
    5.7140    0.8406    0.0000 C   0  0
    5.0005    0.4254    0.0000 C   0  0
    4.2840    0.8352    0.0000 P   0  0
    4.2815    1.4952    0.0000 O   0  0
    5.0105    1.2597    0.0000 C   0  0
    5.0067    2.0851    0.0000 C   0  0
    5.5766    2.4181    0.0000 C   0  0
    3.5706    0.4200    0.0000 C   0  0
    3.5734   -0.4050    0.0000 C   0  0
    2.8604   -0.8200    0.0000 C   0  0
    2.1444   -0.4100    0.0000 C   0  0
    1.4302   -0.8237    0.0000 N   0  0
    0.7144   -0.4125    0.0000 C   0  0
    0.7144    0.4125    0.0000 N   0  0
    0.0000    0.8250    0.0000 C   0  0
   -0.7144    0.4125    0.0000 N   0  0
   -0.7144   -0.4125    0.0000 C   0  0
    0.0000   -0.8250    0.0000 C   0  0
   -0.1713   -1.6316    0.0000 N   0  0
   -0.9918   -1.7178    0.0000 C   0  0
   -1.3273   -0.9641    0.0000 N   0  0
   -2.1337   -0.7943    0.0000 C   0  0
   -2.6852   -1.4084    0.0000 C   0  0
   -3.4930   -1.2383    0.0000 C   0  0
   -4.0452   -1.8513    0.0000 C   0  0
   -3.8413   -2.4791    0.0000 C   0  0
   -4.8521   -1.6797    0.0000 C   0  0
   -5.1069   -0.8950    0.0000 C   0  0
   -4.5548   -0.2820    0.0000 C   0  0
   -3.7478   -0.4536    0.0000 C   0  0
   -3.3061    0.0367    0.0000 C   0  0
   -0.0017    1.6504    0.0000 C   0  0
   -0.5738    1.9796    0.0000 C   0  0
    0.5693    1.9814    0.0000 C   0  0
    2.1416    0.4150    0.0000 C   0  0
    2.8546    0.8300    0.0000 C   0  0
    1.4311   -1.3737    0.0000 H   0  0
  1  2  1  0
  2  3  1  0
  3  4  1  0
  4  5  2  0
  4  6  1  0
  4  9  1  0
  6  7  1  0
  7  8  1  0
  9 10  2  0
 10 11  1  0
 11 12  2  0
 12 13  1  0
 12 36  1  0
 13 14  1  0
 13 38  1  0
 14 15  2  0
 15 16  1  0
 16 17  2  0
 16 33  1  0
 17 18  1  0
 18 19  2  0
 19 14  1  0
 19 20  1  0
 20 21  2  0
 21 22  1  0
 22 18  1  0
 22 23  1  0
 23 24  2  0
 24 25  1  0
 25 26  2  0
 26 27  1  0
 26 28  1  0
 28 29  2  0
 29 30  1  0
 30 31  2  0
 31 25  1  0
 31 32  1  0
 33 34  1  0
 33 35  1  0
 36 37  2  0
 37  9  1  0
M  END
> <CMPD_CHEMBLID>
CHEMBL528330

> <STANDARD_TYPE>
IC50

> <RELATION>
=

> <STANDARD_VALUE>
5.93

> <STANDARD_UNITS>
nM

> <Molecular_Weight>
515.62938

$$$$

  SciTegic11272012012D

 24 27  0  0  0  0            999 V2000
    0.8551   -1.9812    0.0000 O   0  0
    1.4273   -1.6521    0.0000 C   0  0
    1.4285   -0.8267    0.0000 N   0  0
    0.7144   -0.4125    0.0000 C   0  0
    0.7144    0.4125    0.0000 C   0  0
    0.0000    0.8250    0.0000 C   0  0
    0.0000    1.6500    0.0000 C   0  0
   -0.7145    2.0625    0.0000 C   0  0
   -1.4290    1.6500    0.0000 C   0  0
   -2.1447    2.0612    0.0000 O   0  0
   -2.8590    1.6475    0.0000 C   0  0
   -3.5749    2.0575    0.0000 C   0  0
   -4.2879    1.6425    0.0000 C   0  0
   -4.2851    0.8175    0.0000 C   0  0
   -3.5692    0.4075    0.0000 N   0  0
   -2.8561    0.8225    0.0000 C   0  0
   -1.4290    0.8250    0.0000 C   0  0
   -0.7144    0.4125    0.0000 C   0  0
   -0.7144   -0.4125    0.0000 C   0  0
    0.0000   -0.8250    0.0000 N   0  0
    2.1413   -2.0663    0.0000 C   0  0
    2.5103   -2.7557    0.0000 C   0  0
    2.9228   -2.0412    0.0000 C   0  0
    1.9053   -0.5525    0.0000 H   0  0
  1  2  2  0
  2  3  1  0
  2 21  1  0
  3  4  1  0
  3 24  1  0
  4  5  2  0
  5  6  1  0
  6  7  2  0
  7  8  1  0
  8  9  2  0
  9 10  1  0
  9 17  1  0
 10 11  1  0
 11 12  2  0
 12 13  1  0
 13 14  2  0
 14 15  1  0
 15 16  2  0
 16 11  1  0
 17 18  2  0
 18  6  1  0
 18 19  1  0
 19 20  2  0
 20  4  1  0
 21 22  1  0
 22 23  1  0
 23 21  1  0
M  END
> <CMPD_CHEMBLID>
CHEMBL3685109

> <STANDARD_TYPE>
Ki

> <RELATION>
=

> <STANDARD_VALUE>
6

> <STANDARD_UNITS>
nM

> <Molecular_Weight>
305.3306

$$$$

  SciTegic11272012012D

 22 24  0  0  0  0            999 V2000
    2.1402   -2.8919    0.0000 O   0  0
    2.1414   -2.0664    0.0000 C   0  0
    1.4273   -1.6522    0.0000 C   0  0
    1.4285   -0.8267    0.0000 O   0  0
    0.7145   -0.4125    0.0000 C   0  0
    0.7145    0.4125    0.0000 C   0  0
    0.0000    0.8250    0.0000 C   0  0
   -0.7145    0.4125    0.0000 C   0  0
   -1.4290    0.8250    0.0000 C   0  0
   -2.1435    0.4125    0.0000 C   0  0
   -2.8592    0.8238    0.0000 N   0  0
   -3.5735    0.4100    0.0000 C   0  0
   -3.5723   -0.2500    0.0000 O   0  0
   -4.2892    0.8213    0.0000 C   0  0
   -5.0707    0.7961    0.0000 C   0  0
   -4.6582    1.5106    0.0000 C   0  0
   -2.1435   -0.4125    0.0000 N   0  0
   -1.4290   -0.8250    0.0000 C   0  0
   -0.7145   -0.4125    0.0000 C   0  0
    0.0000   -0.8250    0.0000 C   0  0
   -2.8602    1.3738    0.0000 H   0  0
    2.6160   -3.1678    0.0000 H   0  0
  1  2  1  0
  1 22  1  0
  2  3  1  0
  3  4  1  0
  4  5  1  0
  5  6  2  0
  6  7  1  0
  7  8  2  0
  8  9  1  0
  9 10  2  0
 10 11  1  0
 10 17  1  0
 11 12  1  0
 11 21  1  0
 12 13  2  0
 12 14  1  0
 14 15  1  0
 15 16  1  0
 16 14  1  0
 17 18  2  0
 18 19  1  0
 19  8  1  0
 19 20  2  0
 20  5  1  0
M  END
> <CMPD_CHEMBLID>
CHEMBL3685165

> <STANDARD_TYPE>
Ki

> <RELATION>
=

> <STANDARD_VALUE>
6

> <STANDARD_UNITS>
nM

> <Molecular_Weight>
272.29914

$$$$

  SciTegic11272012012D

 26 29  0  0  0  0            999 V2000
    1.4302   -0.8237    0.0000 O   0  0
    0.7144   -0.4125    0.0000 C   0  0
    0.7144    0.4125    0.0000 C   0  0
    0.0000    0.8250    0.0000 C   0  0
   -0.7144    0.4125    0.0000 N   0  0
   -0.7144   -0.4125    0.0000 C   0  0
   -1.4290   -0.8250    0.0000 C   0  0
   -1.4290   -1.6500    0.0000 N   0  0
   -0.7144   -2.0625    0.0000 C   0  0
   -0.7127   -2.8879    0.0000 N   0  0
    0.0027   -3.2997    0.0000 C   0  0
    0.5737   -2.9687    0.0000 O   0  0
    0.0044   -4.1251    0.0000 C   0  0
    0.4168   -4.7893    0.0000 C   0  0
   -0.4082   -4.7893    0.0000 C   0  0
    0.0000   -1.6500    0.0000 C   0  0
    0.0000   -0.8250    0.0000 C   0  0
    0.0000    1.6504    0.0000 C   0  0
   -0.7151    2.0618    0.0000 C   0  0
   -0.7164    2.8868    0.0000 C   0  0
   -0.0026    3.3005    0.0000 C   0  0
    0.7125    2.8891    0.0000 C   0  0
    0.7138    2.0641    0.0000 C   0  0
    1.2859    1.7350    0.0000 Cl  0  0
   -1.1886   -3.1638    0.0000 H   0  0
    1.9061   -0.5481    0.0000 H   0  0
  1  2  1  0
  1 26  1  0
  2  3  2  0
  3  4  1  0
  4  5  2  0
  4 18  1  0
  5  6  1  0
  6  7  2  0
  7  8  1  0
  8  9  2  0
  9 10  1  0
  9 16  1  0
 10 11  1  0
 10 25  1  0
 11 12  2  0
 11 13  1  0
 13 14  1  0
 14 15  1  0
 15 13  1  0
 16 17  2  0
 17  2  1  0
 17  6  1  0
 18 19  2  0
 19 20  1  0
 20 21  2  0
 21 22  1  0
 22 23  2  0
 23 18  1  0
 23 24  1  0
M  END
> <CMPD_CHEMBLID>
CHEMBL3689689

> <STANDARD_TYPE>
Ki

> <RELATION>
=

> <STANDARD_VALUE>
6

> <STANDARD_UNITS>
nM

> <Molecular_Weight>
339.77566

$$$$

  SciTegic11272012012D

 23 26  0  0  0  0            999 V2000
    0.8551   -1.9812    0.0000 O   0  0
    1.4273   -1.6521    0.0000 C   0  0
    1.4285   -0.8267    0.0000 N   0  0
    0.7144   -0.4125    0.0000 C   0  0
    0.7144    0.4125    0.0000 C   0  0
    0.0000    0.8250    0.0000 C   0  0
    0.0000    1.6500    0.0000 C   0  0
   -0.7145    2.0625    0.0000 C   0  0
   -1.4290    1.6500    0.0000 C   0  0
   -1.4290    0.8250    0.0000 C   0  0
   -0.7144    0.4125    0.0000 C   0  0
   -0.7144   -0.4125    0.0000 C   0  0
    0.0000   -0.8250    0.0000 N   0  0
   -2.1438    2.0627    0.0000 N   0  0
   -2.1452    2.8877    0.0000 C   0  0
   -2.8603    3.2991    0.0000 C   0  0
   -3.5741    2.8855    0.0000 C   0  0
   -3.5728    2.0605    0.0000 C   0  0
   -2.8576    1.6491    0.0000 C   0  0
    2.1413   -2.0663    0.0000 C   0  0
    2.5103   -2.7557    0.0000 C   0  0
    2.9228   -2.0412    0.0000 C   0  0
    1.9053   -0.5525    0.0000 H   0  0
  1  2  2  0
  2  3  1  0
  2 20  1  0
  3  4  1  0
  3 23  1  0
  4  5  2  0
  5  6  1  0
  6  7  2  0
  7  8  1  0
  8  9  2  0
  9 10  1  0
  9 14  1  0
 10 11  2  0
 11  6  1  0
 11 12  1  0
 12 13  2  0
 13  4  1  0
 14 15  1  0
 15 16  1  0
 16 17  1  0
 17 18  1  0
 18 19  1  0
 19 14  1  0
 20 21  1  0
 21 22  1  0
 22 20  1  0
M  END
> <CMPD_CHEMBLID>
CHEMBL3684995

> <STANDARD_TYPE>
Ki

> <RELATION>
=

> <STANDARD_VALUE>
6

> <STANDARD_UNITS>
nM

> <Molecular_Weight>
295.37884

$$$$

  SciTegic11272012012D

 41 46  0  0  0  0            999 V2000
    4.1419   -3.2214    0.0000 C   0  0
    3.5703   -2.8914    0.0000 C   0  0
    2.8558   -3.3038    0.0000 C   0  0
    2.1414   -2.8913    0.0000 C   0  0
    2.1413   -2.0663    0.0000 C   0  0
    1.4273   -1.6521    0.0000 N   0  0
    1.4285   -0.8267    0.0000 C   0  0
    2.0006   -0.4977    0.0000 O   0  0
    0.7144   -0.4125    0.0000 C   0  0
    0.7144    0.4125    0.0000 C   0  0
    0.0000    0.8250    0.0000 C   0  0
   -0.7144    0.4125    0.0000 C   0  0
   -1.4986    0.6674    0.0000 C   0  0
   -1.9836    0.0000    0.0000 C   0  0
   -1.4986   -0.6674    0.0000 C   0  0
   -0.7144   -0.4125    0.0000 C   0  0
    0.0000   -0.8250    0.0000 C   0  0
   -1.7536    1.4524    0.0000 N   0  0
   -1.2506    2.1029    0.0000 C   0  0
   -1.5638    2.8661    0.0000 C   0  0
   -2.3814    2.9764    0.0000 N   0  0
   -2.8857    2.3236    0.0000 C   0  0
   -2.5725    1.5604    0.0000 C   0  0
    2.8559   -1.6539    0.0000 C   0  0
    3.5703   -2.0664    0.0000 C   0  0
    4.2843   -1.6522    0.0000 N   0  0
    4.2832   -0.8268    0.0000 C   0  0
    4.9963   -0.4117    0.0000 N   0  0
    4.9934    0.4133    0.0000 C   0  0
    4.2775    0.8233    0.0000 C   0  0
    3.5644    0.4083    0.0000 C   0  0
    3.5673   -0.4167    0.0000 N   0  0
    2.8482    0.8186    0.0000 C   0  0
    2.8440    1.6436    0.0000 C   0  0
    2.1275    2.0525    0.0000 C   0  0
    1.4151    1.6364    0.0000 C   0  0
    1.4192    0.8114    0.0000 N   0  0
    2.1358    0.4025    0.0000 C   0  0
    4.7611   -1.9264    0.0000 H   0  0
   -2.5902    3.4852    0.0000 H   0  0
    0.9505   -1.9263    0.0000 H   0  0
  1  2  1  0
  2  3  2  0
  3  4  1  0
  4  5  2  0
  5  6  1  0
  5 24  1  0
  6  7  1  0
  6 41  1  0
  7  8  2  0
  7  9  1  0
  9 10  2  0
 10 11  1  0
 11 12  2  0
 12 13  1  0
 13 14  1  0
 13 18  1  0
 14 15  1  0
 15 16  1  0
 16 12  1  0
 16 17  2  0
 17  9  1  0
 18 19  1  0
 19 20  1  0
 20 21  1  0
 21 22  1  0
 21 40  1  0
 22 23  1  0
 23 18  1  0
 24 25  2  0
 25  2  1  0
 25 26  1  0
 26 27  1  0
 26 39  1  0
 27 28  2  0
 28 29  1  0
 29 30  2  0
 30 31  1  0
 31 32  2  0
 31 33  1  0
 32 27  1  0
 33 34  2  0
 34 35  1  0
 35 36  2  0
 36 37  1  0
 37 38  2  0
 38 33  1  0
M  END
> <CMPD_CHEMBLID>
CHEMBL3690074

> <STANDARD_TYPE>
IC50

> <RELATION>
=

> <STANDARD_VALUE>
6.2

> <STANDARD_UNITS>
nM

> <Molecular_Weight>
505.61344

$$$$

  SciTegic11272012012D

 42 47  0  0  0  0            999 V2000
   -2.8059   -3.7641    0.0000 C   0  0
   -2.1727   -3.9505    0.0000 C   0  0
   -1.5745   -3.3817    0.0000 N   0  0
   -0.7828   -3.6135    0.0000 C   0  0
   -0.1861   -3.0438    0.0000 C   0  0
   -0.3810   -2.2449    0.0000 N   0  0
   -1.1730   -2.0103    0.0000 C   0  0
   -1.7696   -2.5800    0.0000 C   0  0
    0.1713   -1.6316    0.0000 C   0  0
    0.9918   -1.7178    0.0000 C   0  0
    1.3273   -0.9641    0.0000 C   0  0
    0.7144   -0.4125    0.0000 C   0  0
    0.7144    0.4125    0.0000 C   0  0
    0.0000    0.8250    0.0000 C   0  0
   -0.7144    0.4125    0.0000 C   0  0
   -0.7144   -0.4125    0.0000 C   0  0
    0.0000   -0.8250    0.0000 C   0  0
   -0.0017    1.6504    0.0000 C   0  0
    0.5693    1.9814    0.0000 O   0  0
   -0.7171    2.0622    0.0000 N   0  0
   -0.7188    2.8876    0.0000 C   0  0
   -1.4334    3.3002    0.0000 C   0  0
   -1.4334    4.1252    0.0000 C   0  0
   -0.7189    4.5377    0.0000 C   0  0
   -0.7189    5.1977    0.0000 C   0  0
   -0.0044    4.1252    0.0000 C   0  0
    0.7113    4.5365    0.0000 N   0  0
    1.4256    4.1227    0.0000 C   0  0
    2.1415    4.5328    0.0000 N   0  0
    2.8546    4.1178    0.0000 C   0  0
    2.8517    3.2928    0.0000 C   0  0
    2.1358    2.8828    0.0000 C   0  0
    1.4228    3.2977    0.0000 N   0  0
    2.1330    2.0573    0.0000 C   0  0
    2.8454    1.6412    0.0000 C   0  0
    2.8412    0.8162    0.0000 C   0  0
    2.1248    0.4073    0.0000 C   0  0
    1.4123    0.8234    0.0000 N   0  0
    1.4165    1.6484    0.0000 C   0  0
   -0.0044    3.3002    0.0000 C   0  0
    0.7122    5.0865    0.0000 H   0  0
   -1.1930    1.7863    0.0000 H   0  0
  1  2  1  0
  2  3  1  0
  3  4  1  0
  4  5  1  0
  5  6  1  0
  6  7  1  0
  6  9  1  0
  7  8  1  0
  8  3  1  0
  9 10  1  0
 10 11  1  0
 11 12  1  0
 12 13  2  0
 13 14  1  0
 14 15  2  0
 14 18  1  0
 15 16  1  0
 16 17  2  0
 17  9  1  0
 17 12  1  0
 18 19  2  0
 18 20  1  0
 20 21  1  0
 20 42  1  0
 21 22  2  0
 22 23  1  0
 23 24  2  0
 24 25  1  0
 24 26  1  0
 26 27  1  0
 26 40  2  0
 27 28  1  0
 27 41  1  0
 28 29  2  0
 29 30  1  0
 30 31  2  0
 31 32  1  0
 32 33  2  0
 32 34  1  0
 33 28  1  0
 34 35  2  0
 35 36  1  0
 36 37  2  0
 37 38  1  0
 38 39  2  0
 39 34  1  0
 40 21  1  0
M  END
> <CMPD_CHEMBLID>
CHEMBL3690075

> <STANDARD_TYPE>
IC50

> <RELATION>
=

> <STANDARD_VALUE>
6.3

> <STANDARD_UNITS>
nM

> <Molecular_Weight>
533.6666

$$$$

  SciTegic11272012012D

 27 30  0  0  0  0            999 V2000
   -2.2315   -2.8951    0.0000 C   0  0
   -1.5772   -2.8089    0.0000 C   0  0
   -1.0092   -3.4073    0.0000 C   0  0
   -0.2646   -3.0520    0.0000 C   0  0
   -0.3810   -2.2450    0.0000 C   0  0
   -1.1836   -2.0838    0.0000 C   0  0
    0.1713   -1.6316    0.0000 N   0  0
    0.9918   -1.7179    0.0000 N   0  0
    1.3273   -0.9642    0.0000 C   0  0
    2.1348   -0.7925    0.0000 C   0  0
    2.7291   -1.3607    0.0000 C   0  0
    3.5209   -1.1288    0.0000 C   0  0
    3.7159   -0.3272    0.0000 C   0  0
    4.3494   -0.1417    0.0000 F   0  0
    3.1193    0.2426    0.0000 C   0  0
    3.3128    1.0450    0.0000 O   0  0
    2.3275    0.0107    0.0000 C   0  0
    0.7145   -0.4125    0.0000 C   0  0
    0.7145    0.4125    0.0000 C   0  0
    1.4285    0.8267    0.0000 N   0  0
    0.0000    0.8250    0.0000 N   0  0
   -0.7145    0.4125    0.0000 C   0  0
   -0.7145   -0.4125    0.0000 N   0  0
    0.0000   -0.8250    0.0000 C   0  0
    1.4277    1.3767    0.0000 H   0  0
    1.9053    0.5525    0.0000 H   0  0
    2.9145    1.4243    0.0000 H   0  0
  1  2  1  0
  2  3  1  0
  3  4  1  0
  4  5  1  0
  5  6  1  0
  5  7  1  0
  6  2  1  0
  7  8  1  0
  8  9  2  0
  9 10  1  0
  9 18  1  0
 10 11  2  0
 11 12  1  0
 12 13  2  0
 13 14  1  0
 13 15  1  0
 15 16  1  0
 15 17  2  0
 16 27  1  0
 17 10  1  0
 18 19  2  0
 19 20  1  0
 19 21  1  0
 20 25  1  0
 20 26  1  0
 21 22  2  0
 22 23  1  0
 23 24  2  0
 24  7  1  0
 24 18  1  0
M  END
> <CMPD_CHEMBLID>
CHEMBL1242656

> <STANDARD_TYPE>
IC50

> <RELATION>
=

> <STANDARD_VALUE>
6.4

> <STANDARD_UNITS>
nM

> <Molecular_Weight>
327.35612

$$$$

  SciTegic11272012012D

 42 46  0  0  0  0            999 V2000
    2.1433    0.2500    0.0000 C   0  0
    2.1444   -0.4100    0.0000 C   0  0
    2.7167   -0.7388    0.0000 O   0  0
    1.4302   -0.8237    0.0000 N   0  0
    0.7144   -0.4125    0.0000 C   0  0
    0.7144    0.4125    0.0000 C   0  0
    0.0000    0.8250    0.0000 C   0  0
   -0.7144    0.4125    0.0000 C   0  0
   -0.7144   -0.4125    0.0000 N   0  0
   -1.3273   -0.9641    0.0000 C   0  0
   -0.9918   -1.7178    0.0000 C   0  0
   -0.1713   -1.6316    0.0000 N   0  0
    0.0000   -0.8250    0.0000 C   0  0
   -2.1333   -0.7927    0.0000 C   0  0
   -2.9407   -0.6209    0.0000 C   0  0
   -3.7481   -0.4491    0.0000 C   0  0
   -4.3002   -1.0621    0.0000 C   0  0
   -5.1072   -0.8904    0.0000 C   0  0
   -5.3620   -0.1057    0.0000 C   0  0
   -4.8098    0.5073    0.0000 C   0  0
   -4.0029    0.3356    0.0000 C   0  0
   -3.5611    0.8259    0.0000 C   0  0
   -5.6609   -1.5026    0.0000 C   0  0
   -5.4581   -2.1307    0.0000 O   0  0
   -6.4681   -1.3297    0.0000 N   0  0
   -7.0217   -1.9418    0.0000 C   0  0
   -7.8287   -1.7702    0.0000 C   0  0
   -8.3809   -2.3831    0.0000 C   0  0
   -8.1261   -3.1678    0.0000 C   0  0
   -7.3192   -3.3395    0.0000 C   0  0
   -6.7670   -2.7266    0.0000 C   0  0
   -7.0643   -4.1247    0.0000 C   0  0
   -7.5057   -4.6153    0.0000 F   0  0
   -6.4187   -4.2618    0.0000 F   0  0
   -6.8602   -4.7523    0.0000 F   0  0
   -9.1882   -2.2114    0.0000 N   0  0
   -9.5131   -1.4606    0.0000 C   0  0
  -10.3334   -1.5480    0.0000 C   0  0
  -10.5038   -2.3552    0.0000 N   0  0
   -9.7888   -2.7667    0.0000 C   0  0
   -6.6370   -0.8062    0.0000 H   0  0
    1.4312   -1.3737    0.0000 H   0  0
  1  2  1  0
  2  3  2  0
  2  4  1  0
  4  5  1  0
  4 42  1  0
  5  6  2  0
  6  7  1  0
  7  8  2  0
  8  9  1  0
  9 10  1  0
 10 11  2  0
 10 14  1  0
 11 12  1  0
 12 13  2  0
 13  5  1  0
 13  9  1  0
 14 15  3  0
 15 16  1  0
 16 17  2  0
 17 18  1  0
 18 19  2  0
 18 23  1  0
 19 20  1  0
 20 21  2  0
 21 16  1  0
 21 22  1  0
 23 24  2  0
 23 25  1  0
 25 26  1  0
 25 41  1  0
 26 27  2  0
 27 28  1  0
 28 29  2  0
 28 36  1  0
 29 30  1  0
 30 31  2  0
 30 32  1  0
 31 26  1  0
 32 33  1  0
 32 34  1  0
 32 35  1  0
 36 37  1  0
 37 38  2  0
 38 39  1  0
 39 40  2  0
 40 36  1  0
M  END
> <CMPD_CHEMBLID>
CHEMBL1172585

> <STANDARD_TYPE>
IC50

> <RELATION>
=

> <STANDARD_VALUE>
6.4

> <STANDARD_UNITS>
nM

> <Molecular_Weight>
542.51125

$$$$

  SciTegic11272012012D

 38 42  0  0  0  0            999 V2000
    3.4280   -1.9834    0.0000 C   0  0
    2.8570   -1.6525    0.0000 N   0  0
    2.8583   -0.8275    0.0000 C   0  0
    2.1445   -0.4139    0.0000 C   0  0
    1.4293   -0.8252    0.0000 N   0  0
    1.4281   -1.6502    0.0000 C   0  0
    2.1419   -2.0639    0.0000 C   0  0
    0.7144   -0.4125    0.0000 C   0  0
    0.7144    0.4125    0.0000 N   0  0
    0.0000    0.8250    0.0000 C   0  0
    0.0017    1.6504    0.0000 N   0  0
    0.7171    2.0622    0.0000 C   0  0
    0.7201    2.8872    0.0000 C   0  0
    1.4359    3.2972    0.0000 C   0  0
    2.1490    2.8823    0.0000 C   0  0
    2.1461    2.0573    0.0000 C   0  0
    1.4302    1.6472    0.0000 C   0  0
    2.8653    3.2925    0.0000 P   0  0
    2.8680    3.9525    0.0000 O   0  0
    3.4356    2.9604    0.0000 C   0  0
    3.4381    3.6203    0.0000 C   0  0
   -0.7144    0.4125    0.0000 C   0  0
   -1.4986    0.6674    0.0000 N   0  0
   -1.9836    0.0000    0.0000 C   0  0
   -1.4986   -0.6674    0.0000 N   0  0
   -1.7547   -1.4507    0.0000 C   0  0
   -2.5623   -1.6213    0.0000 C   0  0
   -2.8189   -2.4059    0.0000 C   0  0
   -3.6259   -2.5776    0.0000 C   0  0
   -4.0676   -2.0872    0.0000 C   0  0
   -3.8807   -3.3623    0.0000 C   0  0
   -3.3285   -3.9752    0.0000 C   0  0
   -2.5216   -3.8036    0.0000 C   0  0
   -2.2668   -3.0189    0.0000 C   0  0
   -1.6212   -2.8816    0.0000 C   0  0
   -0.7144   -0.4125    0.0000 C   0  0
    0.0000   -0.8250    0.0000 N   0  0
   -0.4742    1.9263    0.0000 H   0  0
  1  2  1  0
  2  3  1  0
  3  4  1  0
  4  5  1  0
  5  6  1  0
  5  8  1  0
  6  7  1  0
  7  2  1  0
  8  9  2  0
  9 10  1  0
 10 11  1  0
 10 22  2  0
 11 12  1  0
 11 38  1  0
 12 13  2  0
 13 14  1  0
 14 15  2  0
 15 16  1  0
 15 18  1  0
 16 17  2  0
 17 12  1  0
 18 19  2  0
 18 20  1  0
 18 21  1  0
 22 23  1  0
 23 24  2  0
 24 25  1  0
 25 26  1  0
 25 36  1  0
 26 27  2  0
 27 28  1  0
 28 29  2  0
 29 30  1  0
 29 31  1  0
 31 32  2  0
 32 33  1  0
 33 34  2  0
 34 28  1  0
 34 35  1  0
 36 22  1  0
 36 37  2  0
 37  8  1  0
M  END
> <CMPD_CHEMBLID>
CHEMBL509941

> <STANDARD_TYPE>
IC50

> <RELATION>
=

> <STANDARD_VALUE>
6.8

> <STANDARD_UNITS>
nM

> <Molecular_Weight>
515.58962

$$$$

  SciTegic11272012012D

 43 47  0  0  0  0            999 V2000
    7.8485    4.3779    0.0000 C   0  0
    7.8508    3.7179    0.0000 N   0  0
    8.5667    3.3079    0.0000 C   0  0
    8.5696    2.4829    0.0000 C   0  0
    7.8566    2.0679    0.0000 N   0  0
    7.8578    1.2424    0.0000 C   0  0
    7.1438    0.8282    0.0000 C   0  0
    6.4293    1.2407    0.0000 C   0  0
    5.7149    0.8282    0.0000 C   0  0
    5.7148    0.0032    0.0000 C   0  0
    5.0008   -0.4110    0.0000 N   0  0
    5.0020   -1.2364    0.0000 C   0  0
    5.5742   -1.5655    0.0000 O   0  0
    4.2880   -1.6507    0.0000 C   0  0
    4.2880   -2.4756    0.0000 C   0  0
    3.5735   -2.8881    0.0000 C   0  0
    2.8590   -2.4756    0.0000 C   0  0
    2.2875   -2.8056    0.0000 C   0  0
    2.8590   -1.6507    0.0000 C   0  0
    3.5735   -1.2382    0.0000 C   0  0
    2.1442   -1.2379    0.0000 C   0  0
    1.4293   -0.8252    0.0000 C   0  0
    0.7144   -0.4125    0.0000 C   0  0
    0.7144    0.4125    0.0000 C   0  0
    0.0000    0.8250    0.0000 N   0  0
   -0.7144    0.4125    0.0000 C   0  0
   -1.4986    0.6674    0.0000 N   0  0
   -1.9836    0.0000    0.0000 C   0  0
   -2.6436    0.0000    0.0000 O   0  0
   -1.4986   -0.6674    0.0000 N   0  0
   -0.7144   -0.4125    0.0000 C   0  0
    0.0000   -0.8250    0.0000 C   0  0
    6.4294   -0.4093    0.0000 C   0  0
    7.1438    0.0032    0.0000 C   0  0
    7.8587   -0.4095    0.0000 C   0  0
    7.8591   -1.0695    0.0000 F   0  0
    8.4301   -0.0793    0.0000 F   0  0
    8.4304   -0.7392    0.0000 F   0  0
    7.1407    2.4780    0.0000 C   0  0
    7.1378    3.3030    0.0000 C   0  0
   -1.6685   -1.1905    0.0000 H   0  0
   -1.6685    1.1905    0.0000 H   0  0
    4.5241   -0.1368    0.0000 H   0  0
  1  2  1  0
  2  3  1  0
  3  4  1  0
  4  5  1  0
  5  6  1  0
  5 39  1  0
  6  7  1  0
  7  8  2  0
  8  9  1  0
  9 10  2  0
 10 11  1  0
 10 33  1  0
 11 12  1  0
 11 43  1  0
 12 13  2  0
 12 14  1  0
 14 15  2  0
 15 16  1  0
 16 17  2  0
 17 18  1  0
 17 19  1  0
 19 20  2  0
 19 21  1  0
 20 14  1  0
 21 22  3  0
 22 23  1  0
 23 24  2  0
 24 25  1  0
 25 26  2  0
 26 27  1  0
 27 28  1  0
 27 42  1  0
 28 29  2  0
 28 30  1  0
 30 31  1  0
 30 41  1  0
 31 26  1  0
 31 32  2  0
 32 23  1  0
 33 34  2  0
 34  7  1  0
 34 35  1  0
 35 36  1  0
 35 37  1  0
 35 38  1  0
 39 40  1  0
 40  2  1  0
M  END
> <CMPD_CHEMBLID>
CHEMBL1171658

> <STANDARD_TYPE>
IC50

> <RELATION>
=

> <STANDARD_VALUE>
6.9

> <STANDARD_UNITS>
nM

> <Molecular_Weight>
548.55889

$$$$

  SciTegic11272012012D

 28 31  0  0  0  0            999 V2000
    2.1455    0.2461    0.0000 C   0  0
    2.1445   -0.4139    0.0000 C   0  0
    2.8583   -0.8275    0.0000 C   0  0
    2.8570   -1.6525    0.0000 C   0  0
    2.1419   -2.0639    0.0000 C   0  0
    2.1408   -2.7239    0.0000 F   0  0
    1.4281   -1.6502    0.0000 C   0  0
    1.4293   -0.8252    0.0000 C   0  0
    0.7144   -0.4125    0.0000 C   0  0
    0.7144    0.4125    0.0000 C   0  0
    0.0000    0.8250    0.0000 C   0  0
   -0.7144    0.4125    0.0000 C   0  0
   -1.4290    0.8250    0.0000 C   0  0
   -2.1434    0.4125    0.0000 C   0  0
   -2.8591    0.8237    0.0000 N   0  0
   -3.5734    0.4100    0.0000 C   0  0
   -3.5722   -0.2500    0.0000 O   0  0
   -4.2891    0.8213    0.0000 C   0  0
   -5.0036    0.4088    0.0000 C   0  0
   -5.7181    0.8213    0.0000 C   0  0
   -5.7181    1.6463    0.0000 N   0  0
   -5.0037    2.0588    0.0000 C   0  0
   -4.2892    1.6463    0.0000 C   0  0
   -2.1434   -0.4125    0.0000 N   0  0
   -1.4290   -0.8250    0.0000 C   0  0
   -0.7144   -0.4125    0.0000 C   0  0
    0.0000   -0.8250    0.0000 C   0  0
   -2.8601    1.3737    0.0000 H   0  0
  1  2  1  0
  2  3  2  0
  3  4  1  0
  4  5  2  0
  5  6  1  0
  5  7  1  0
  7  8  2  0
  8  2  1  0
  8  9  1  0
  9 10  2  0
 10 11  1  0
 11 12  2  0
 12 13  1  0
 13 14  2  0
 14 15  1  0
 14 24  1  0
 15 16  1  0
 15 28  1  0
 16 17  2  0
 16 18  1  0
 18 19  2  0
 19 20  1  0
 20 21  2  0
 21 22  1  0
 22 23  2  0
 23 18  1  0
 24 25  2  0
 25 26  1  0
 26 12  1  0
 26 27  2  0
 27  9  1  0
M  END
> <CMPD_CHEMBLID>
CHEMBL3685032

> <STANDARD_TYPE>
Ki

> <RELATION>
=

> <STANDARD_VALUE>
7

> <STANDARD_UNITS>
nM

> <Molecular_Weight>
357.38034

$$$$

  SciTegic11272012012D

 22 25  0  0  0  0            999 V2000
    0.8551   -1.9812    0.0000 O   0  0
    1.4273   -1.6521    0.0000 C   0  0
    1.4285   -0.8267    0.0000 N   0  0
    0.7144   -0.4125    0.0000 C   0  0
    0.7144    0.4125    0.0000 C   0  0
    0.0000    0.8250    0.0000 C   0  0
    0.0000    1.6500    0.0000 C   0  0
   -0.7145    2.0625    0.0000 C   0  0
   -1.4290    1.6500    0.0000 C   0  0
   -2.1447    2.0612    0.0000 O   0  0
   -2.8590    1.6475    0.0000 C   0  0
   -3.6320    1.8725    0.0000 C   0  0
   -3.8427    1.0749    0.0000 C   0  0
   -3.0451    0.8642    0.0000 C   0  0
   -1.4290    0.8250    0.0000 C   0  0
   -0.7144    0.4125    0.0000 C   0  0
   -0.7144   -0.4125    0.0000 C   0  0
    0.0000   -0.8250    0.0000 N   0  0
    2.1413   -2.0663    0.0000 C   0  0
    2.5103   -2.7557    0.0000 C   0  0
    2.9228   -2.0412    0.0000 C   0  0
    1.9053   -0.5525    0.0000 H   0  0
  1  2  2  0
  2  3  1  0
  2 19  1  0
  3  4  1  0
  3 22  1  0
  4  5  2  0
  5  6  1  0
  6  7  2  0
  7  8  1  0
  8  9  2  0
  9 10  1  0
  9 15  1  0
 10 11  1  0
 11 12  1  0
 12 13  1  0
 13 14  1  0
 14 11  1  0
 15 16  2  0
 16  6  1  0
 16 17  1  0
 17 18  2  0
 18  4  1  0
 19 20  1  0
 20 21  1  0
 21 19  1  0
M  END
> <CMPD_CHEMBLID>
CHEMBL3685190

> <STANDARD_TYPE>
Ki

> <RELATION>
=

> <STANDARD_VALUE>
7

> <STANDARD_UNITS>
nM

> <Molecular_Weight>
282.33702

$$$$

  SciTegic11272012012D

 20 22  0  0  0  0            999 V2000
    1.9982   -1.9833    0.0000 C   0  0
    1.4273   -1.6522    0.0000 C   0  0
    1.4285   -0.8267    0.0000 O   0  0
    0.7145   -0.4125    0.0000 C   0  0
    0.7145    0.4125    0.0000 C   0  0
    0.0000    0.8250    0.0000 C   0  0
   -0.7145    0.4125    0.0000 C   0  0
   -1.4290    0.8250    0.0000 C   0  0
   -2.1435    0.4125    0.0000 C   0  0
   -2.8592    0.8238    0.0000 N   0  0
   -3.5735    0.4100    0.0000 C   0  0
   -3.5723   -0.2500    0.0000 O   0  0
   -4.2892    0.8213    0.0000 C   0  0
   -5.0707    0.7961    0.0000 C   0  0
   -4.6582    1.5106    0.0000 C   0  0
   -2.1435   -0.4125    0.0000 N   0  0
   -1.4290   -0.8250    0.0000 C   0  0
   -0.7145   -0.4125    0.0000 C   0  0
    0.0000   -0.8250    0.0000 C   0  0
   -2.8602    1.3738    0.0000 H   0  0
  1  2  1  0
  2  3  1  0
  3  4  1  0
  4  5  2  0
  5  6  1  0
  6  7  2  0
  7  8  1  0
  8  9  2  0
  9 10  1  0
  9 16  1  0
 10 11  1  0
 10 20  1  0
 11 12  2  0
 11 13  1  0
 13 14  1  0
 14 15  1  0
 15 13  1  0
 16 17  2  0
 17 18  1  0
 18  7  1  0
 18 19  2  0
 19  4  1  0
M  END
> <CMPD_CHEMBLID>
CHEMBL3685164

> <STANDARD_TYPE>
Ki

> <RELATION>
=

> <STANDARD_VALUE>
7

> <STANDARD_UNITS>
nM

> <Molecular_Weight>
256.29974

$$$$

  SciTegic11272012012D

 25 28  0  0  0  0            999 V2000
    2.1455    0.2461    0.0000 Cl  0  0
    2.1445   -0.4139    0.0000 C   0  0
    2.8583   -0.8275    0.0000 C   0  0
    2.8570   -1.6525    0.0000 C   0  0
    2.1419   -2.0639    0.0000 C   0  0
    1.4281   -1.6502    0.0000 C   0  0
    1.4293   -0.8252    0.0000 C   0  0
    0.7144   -0.4125    0.0000 C   0  0
    0.7144    0.4125    0.0000 C   0  0
    0.0000    0.8250    0.0000 C   0  0
   -0.7144    0.4125    0.0000 C   0  0
   -1.4290    0.8250    0.0000 C   0  0
   -2.1434    0.4125    0.0000 C   0  0
   -2.8591    0.8237    0.0000 N   0  0
   -3.5734    0.4100    0.0000 C   0  0
   -4.2893    0.8200    0.0000 C   0  0
   -5.0024    0.4050    0.0000 C   0  0
   -4.9995   -0.4200    0.0000 C   0  0
   -4.2836   -0.8300    0.0000 C   0  0
   -3.5706   -0.4150    0.0000 N   0  0
   -2.1434   -0.4125    0.0000 N   0  0
   -1.4290   -0.8250    0.0000 C   0  0
   -0.7144   -0.4125    0.0000 C   0  0
    0.0000   -0.8250    0.0000 C   0  0
   -2.8601    1.3737    0.0000 H   0  0
  1  2  1  0
  2  3  2  0
  3  4  1  0
  4  5  2  0
  5  6  1  0
  6  7  2  0
  7  2  1  0
  7  8  1  0
  8  9  2  0
  9 10  1  0
 10 11  2  0
 11 12  1  0
 12 13  2  0
 13 14  1  0
 13 21  1  0
 14 15  1  0
 14 25  1  0
 15 16  2  0
 16 17  1  0
 17 18  2  0
 18 19  1  0
 19 20  2  0
 20 15  1  0
 21 22  2  0
 22 23  1  0
 23 11  1  0
 23 24  2  0
 24  8  1  0
M  END
> <CMPD_CHEMBLID>
CHEMBL3684997

> <STANDARD_TYPE>
Ki

> <RELATION>
=

> <STANDARD_VALUE>
7

> <STANDARD_UNITS>
nM

> <Molecular_Weight>
331.79826

$$$$

  SciTegic11272012012D

 24 27  0  0  0  0            999 V2000
    0.6207   -3.4409    0.0000 C   0  0
    1.0105   -2.9083    0.0000 N   0  0
    1.8355   -2.9112    0.0000 C   0  0
    2.0931   -2.1274    0.0000 C   0  0
    1.4273   -1.6522    0.0000 C   0  0
    1.4285   -0.8267    0.0000 O   0  0
    0.7145   -0.4125    0.0000 C   0  0
    0.7145    0.4125    0.0000 C   0  0
    0.0000    0.8250    0.0000 C   0  0
   -0.7145    0.4125    0.0000 C   0  0
   -1.4290    0.8250    0.0000 C   0  0
   -2.1435    0.4125    0.0000 C   0  0
   -2.8592    0.8238    0.0000 N   0  0
   -3.5735    0.4100    0.0000 C   0  0
   -3.5723   -0.2500    0.0000 O   0  0
   -4.2892    0.8213    0.0000 C   0  0
   -5.0707    0.7961    0.0000 C   0  0
   -4.6582    1.5106    0.0000 C   0  0
   -2.1435   -0.4125    0.0000 N   0  0
   -1.4290   -0.8250    0.0000 C   0  0
   -0.7145   -0.4125    0.0000 C   0  0
    0.0000   -0.8250    0.0000 C   0  0
    0.7582   -2.1228    0.0000 N   0  0
   -2.8602    1.3738    0.0000 H   0  0
  1  2  1  0
  2  3  1  0
  3  4  2  0
  4  5  1  0
  5  6  1  0
  5 23  2  0
  6  7  1  0
  7  8  2  0
  8  9  1  0
  9 10  2  0
 10 11  1  0
 11 12  2  0
 12 13  1  0
 12 19  1  0
 13 14  1  0
 13 24  1  0
 14 15  2  0
 14 16  1  0
 16 17  1  0
 17 18  1  0
 18 16  1  0
 19 20  2  0
 20 21  1  0
 21 10  1  0
 21 22  2  0
 22  7  1  0
 23  2  1  0
M  END
> <CMPD_CHEMBLID>
CHEMBL3685132

> <STANDARD_TYPE>
Ki

> <RELATION>
=

> <STANDARD_VALUE>
7

> <STANDARD_UNITS>
nM

> <Molecular_Weight>
308.33454

$$$$

  SciTegic11272012012D

 31 35  0  0  0  0            999 V2000
    2.1456    0.2461    0.0000 C   0  0
    2.1445   -0.4139    0.0000 C   0  0
    2.8583   -0.8275    0.0000 C   0  0
    2.8570   -1.6525    0.0000 C   0  0
    2.1419   -2.0639    0.0000 C   0  0
    2.1408   -2.7239    0.0000 F   0  0
    1.4281   -1.6502    0.0000 C   0  0
    1.4293   -0.8252    0.0000 C   0  0
    0.7145   -0.4125    0.0000 C   0  0
    0.7145    0.4125    0.0000 C   0  0
    0.0000    0.8250    0.0000 C   0  0
   -0.7145    0.4125    0.0000 C   0  0
   -1.4290    0.8250    0.0000 C   0  0
   -2.1434    0.4125    0.0000 C   0  0
   -2.8591    0.8237    0.0000 N   0  0
   -3.5734    0.4100    0.0000 C   0  0
   -3.5723   -0.2500    0.0000 O   0  0
   -4.2891    0.8213    0.0000 C   0  0
   -4.6581    1.5106    0.0000 C   0  0
   -5.0706    0.7961    0.0000 C   0  0
   -5.7787    0.3720    0.0000 C   0  0
   -6.0660   -0.3892    0.0000 C   0  0
   -6.8799   -0.5238    0.0000 C   0  0
   -7.4035    0.1138    0.0000 C   0  0
   -7.1131    0.8860    0.0000 C   0  0
   -6.2991    1.0206    0.0000 C   0  0
   -2.1434   -0.4125    0.0000 N   0  0
   -1.4290   -0.8250    0.0000 C   0  0
   -0.7145   -0.4125    0.0000 C   0  0
    0.0000   -0.8250    0.0000 C   0  0
   -2.8601    1.3737    0.0000 H   0  0
  1  2  1  0
  2  3  2  0
  3  4  1  0
  4  5  2  0
  5  6  1  0
  5  7  1  0
  7  8  2  0
  8  2  1  0
  8  9  1  0
  9 10  2  0
 10 11  1  0
 11 12  2  0
 12 13  1  0
 13 14  2  0
 14 15  1  0
 14 27  1  0
 15 16  1  0
 15 31  1  0
 16 17  2  0
 16 18  1  0
 18 19  1  0
 19 20  1  0
 20 18  1  0
 20 21  1  0
 21 22  2  0
 22 23  1  0
 23 24  2  0
 24 25  1  0
 25 26  2  0
 26 21  1  0
 27 28  2  0
 28 29  1  0
 29 12  1  0
 29 30  2  0
 30  9  1  0
M  END
> <CMPD_CHEMBLID>
CHEMBL3685151

> <STANDARD_TYPE>
Ki

> <RELATION>
=

> <STANDARD_VALUE>
7

> <STANDARD_UNITS>
nM

> <Molecular_Weight>
396.45614

$$$$

  SciTegic11272012012D

 29 32  0  0  0  0            999 V2000
    2.1456    0.2461    0.0000 C   0  0
    2.1445   -0.4139    0.0000 C   0  0
    2.8583   -0.8275    0.0000 C   0  0
    2.8570   -1.6525    0.0000 C   0  0
    2.1419   -2.0639    0.0000 C   0  0
    1.4281   -1.6502    0.0000 C   0  0
    1.4293   -0.8252    0.0000 C   0  0
    0.7145   -0.4125    0.0000 C   0  0
    0.7145    0.4125    0.0000 C   0  0
    0.0000    0.8250    0.0000 C   0  0
   -0.7145    0.4125    0.0000 C   0  0
   -1.4290    0.8250    0.0000 C   0  0
   -2.1434    0.4125    0.0000 C   0  0
   -2.8592    0.8237    0.0000 N   0  0
   -3.5735    0.4100    0.0000 C   0  0
   -3.5723   -0.2500    0.0000 O   0  0
   -4.2892    0.8213    0.0000 C   0  0
   -5.0707    0.7961    0.0000 C   0  0
   -4.6581    1.5106    0.0000 C   0  0
   -2.1434   -0.4125    0.0000 N   0  0
   -1.4290   -0.8250    0.0000 C   0  0
   -0.7145   -0.4125    0.0000 C   0  0
    0.0000   -0.8250    0.0000 C   0  0
    3.5713   -2.0664    0.0000 C   0  0
    3.5700   -2.7264    0.0000 C   0  0
    4.1422   -2.3976    0.0000 C   0  0
    4.2871   -1.6553    0.0000 O   0  0
    4.7629   -1.9310    0.0000 H   0  0
   -2.8602    1.3738    0.0000 H   0  0
  1  2  1  0
  2  3  2  0
  3  4  1  0
  4  5  2  0
  4 24  1  0
  5  6  1  0
  6  7  2  0
  7  2  1  0
  7  8  1  0
  8  9  2  0
  9 10  1  0
 10 11  2  0
 11 12  1  0
 12 13  2  0
 13 14  1  0
 13 20  1  0
 14 15  1  0
 14 29  1  0
 15 16  2  0
 15 17  1  0
 17 18  1  0
 18 19  1  0
 19 17  1  0
 20 21  2  0
 21 22  1  0
 22 11  1  0
 22 23  2  0
 23  8  1  0
 24 25  1  0
 24 26  1  0
 24 27  1  0
 27 28  1  0
M  END
> <CMPD_CHEMBLID>
CHEMBL3689627

> <STANDARD_TYPE>
Ki

> <RELATION>
=

> <STANDARD_VALUE>
7

> <STANDARD_UNITS>
nM

> <Molecular_Weight>
360.44886

$$$$

  SciTegic11272012012D

 24 27  0  0  0  0            999 V2000
    1.4276   -1.6521    0.0000 O   0  0
    1.4288   -0.8267    0.0000 C   0  0
    1.4861   -0.0238    0.0000 C   0  0
    2.2933    0.1464    0.0000 C   0  0
    2.7047   -0.5687    0.0000 C   0  0
    2.1516   -1.1809    0.0000 C   0  0
    0.7145   -0.4125    0.0000 C   0  0
    0.7145    0.4125    0.0000 C   0  0
    0.0000    0.8250    0.0000 C   0  0
   -0.7145    0.4125    0.0000 C   0  0
   -1.4290    0.8250    0.0000 C   0  0
   -2.1435    0.4125    0.0000 C   0  0
   -2.8592    0.8238    0.0000 N   0  0
   -3.5735    0.4100    0.0000 C   0  0
   -3.5723   -0.2500    0.0000 O   0  0
   -4.2892    0.8213    0.0000 C   0  0
   -5.0707    0.7961    0.0000 C   0  0
   -4.6582    1.5106    0.0000 C   0  0
   -2.1435   -0.4125    0.0000 N   0  0
   -1.4290   -0.8250    0.0000 C   0  0
   -0.7145   -0.4125    0.0000 C   0  0
    0.0000   -0.8250    0.0000 N   0  0
   -2.8602    1.3738    0.0000 H   0  0
    1.9033   -1.9282    0.0000 H   0  0
  1  2  1  0
  1 24  1  0
  2  3  1  0
  2  7  1  0
  3  4  1  0
  4  5  1  0
  5  6  1  0
  6  2  1  0
  7  8  2  0
  8  9  1  0
  9 10  2  0
 10 11  1  0
 11 12  2  0
 12 13  1  0
 12 19  1  0
 13 14  1  0
 13 23  1  0
 14 15  2  0
 14 16  1  0
 16 17  1  0
 17 18  1  0
 18 16  1  0
 19 20  2  0
 20 21  1  0
 21 10  1  0
 21 22  2  0
 22  7  1  0
M  END
> <CMPD_CHEMBLID>
CHEMBL3689690

> <STANDARD_TYPE>
Ki

> <RELATION>
=

> <STANDARD_VALUE>
7

> <STANDARD_UNITS>
nM

> <Molecular_Weight>
297.35166

$$$$

  SciTegic11272012012D

 26 29  0  0  0  0            999 V2000
    3.5747   -0.4174    0.0000 N   0  0
    2.8583   -0.8275    0.0000 C   0  0
    2.1445   -0.4139    0.0000 C   0  0
    1.4293   -0.8252    0.0000 C   0  0
    1.4281   -1.6502    0.0000 C   0  0
    2.1419   -2.0639    0.0000 C   0  0
    2.8570   -1.6525    0.0000 N   0  0
    0.7145   -0.4125    0.0000 C   0  0
    0.7145    0.4125    0.0000 C   0  0
    0.0000    0.8250    0.0000 C   0  0
   -0.7145    0.4125    0.0000 C   0  0
   -1.4290    0.8250    0.0000 C   0  0
   -2.1434    0.4125    0.0000 C   0  0
   -2.8592    0.8237    0.0000 N   0  0
   -3.5735    0.4100    0.0000 C   0  0
   -3.5723   -0.2500    0.0000 O   0  0
   -4.2892    0.8213    0.0000 C   0  0
   -5.0706    0.7961    0.0000 C   0  0
   -4.6581    1.5106    0.0000 C   0  0
   -2.1434   -0.4125    0.0000 N   0  0
   -1.4290   -0.8250    0.0000 C   0  0
   -0.7145   -0.4125    0.0000 C   0  0
    0.0000   -0.8250    0.0000 C   0  0
   -2.8601    1.3738    0.0000 H   0  0
    4.0502   -0.6938    0.0000 H   0  0
    3.5765    0.1326    0.0000 H   0  0
  1  2  1  0
  1 25  1  0
  1 26  1  0
  2  3  2  0
  3  4  1  0
  4  5  2  0
  4  8  1  0
  5  6  1  0
  6  7  2  0
  7  2  1  0
  8  9  2  0
  9 10  1  0
 10 11  2  0
 11 12  1  0
 12 13  2  0
 13 14  1  0
 13 20  1  0
 14 15  1  0
 14 24  1  0
 15 16  2  0
 15 17  1  0
 17 18  1  0
 18 19  1  0
 19 17  1  0
 20 21  2  0
 21 22  1  0
 22 11  1  0
 22 23  2  0
 23  8  1  0
M  END
> <CMPD_CHEMBLID>
CHEMBL3685144

> <STANDARD_TYPE>
Ki

> <RELATION>
=

> <STANDARD_VALUE>
7

> <STANDARD_UNITS>
nM

> <Molecular_Weight>
304.34584

$$$$

  SciTegic11272012012D

 35 39  0  0  0  0            999 V2000
    1.4160   -6.4354    0.0000 C   0  0
    1.4171   -5.7754    0.0000 N   0  0
    0.7033   -5.3617    0.0000 C   0  0
    0.7046   -4.5367    0.0000 C   0  0
    1.4198   -4.1253    0.0000 C   0  0
    2.1336   -4.5390    0.0000 C   0  0
    2.1322   -5.3640    0.0000 C   0  0
    1.4227   -3.2999    0.0000 C   0  0
    0.8523   -2.9680    0.0000 O   0  0
    2.1388   -2.8893    0.0000 N   0  0
    2.1419   -2.0639    0.0000 C   0  0
    2.8570   -1.6525    0.0000 C   0  0
    2.8583   -0.8275    0.0000 C   0  0
    2.1445   -0.4139    0.0000 C   0  0
    2.1455    0.2461    0.0000 C   0  0
    1.4293   -0.8252    0.0000 C   0  0
    1.4281   -1.6502    0.0000 C   0  0
    0.7144   -0.4125    0.0000 C   0  0
    0.7144    0.4125    0.0000 C   0  0
    0.0000    0.8250    0.0000 C   0  0
   -0.7144    0.4125    0.0000 C   0  0
   -1.4290    0.8250    0.0000 C   0  0
   -2.1434    0.4125    0.0000 C   0  0
   -2.8591    0.8237    0.0000 N   0  0
   -3.5734    0.4100    0.0000 C   0  0
   -3.5722   -0.2500    0.0000 O   0  0
   -4.2891    0.8213    0.0000 C   0  0
   -5.0706    0.7961    0.0000 C   0  0
   -4.6581    1.5106    0.0000 C   0  0
   -2.1434   -0.4125    0.0000 N   0  0
   -1.4290   -0.8250    0.0000 C   0  0
   -0.7144   -0.4125    0.0000 C   0  0
    0.0000   -0.8250    0.0000 C   0  0
   -2.8601    1.3737    0.0000 H   0  0
    2.6143   -3.1659    0.0000 H   0  0
  1  2  1  0
  2  3  1  0
  3  4  1  0
  4  5  1  0
  5  6  1  0
  5  8  1  0
  6  7  1  0
  7  2  1  0
  8  9  2  0
  8 10  1  0
 10 11  1  0
 10 35  1  0
 11 12  2  0
 12 13  1  0
 13 14  2  0
 14 15  1  0
 14 16  1  0
 16 17  2  0
 16 18  1  0
 17 11  1  0
 18 19  2  0
 19 20  1  0
 20 21  2  0
 21 22  1  0
 22 23  2  0
 23 24  1  0
 23 30  1  0
 24 25  1  0
 24 34  1  0
 25 26  2  0
 25 27  1  0
 27 28  1  0
 28 29  1  0
 29 27  1  0
 30 31  2  0
 31 32  1  0
 32 21  1  0
 32 33  2  0
 33 18  1  0
M  END
> <CMPD_CHEMBLID>
CHEMBL3685176

> <STANDARD_TYPE>
Ki

> <RELATION>
=

> <STANDARD_VALUE>
7

> <STANDARD_UNITS>
nM

> <Molecular_Weight>
442.5527

$$$$

  SciTegic11272012012D

 47 54  0  0  0  0            999 V2000
    1.4171   -4.1276    0.0000 C   0  0
    1.4216   -3.3022    0.0000 N   0  0
    2.1375   -2.8922    0.0000 C   0  0
    2.1403   -2.0672    0.0000 C   0  0
    1.4273   -1.6521    0.0000 C   0  0
    0.7114   -2.0622    0.0000 C   0  0
    0.7086   -2.8872    0.0000 C   0  0
    1.4285   -0.8267    0.0000 N   0  0
    0.7144   -0.4125    0.0000 C   0  0
    0.7144    0.4125    0.0000 C   0  0
    0.0000    0.8250    0.0000 C   0  0
   -0.7144    0.4125    0.0000 C   0  0
   -1.4986    0.6674    0.0000 N   0  0
   -1.9836    0.0000    0.0000 N   0  0
   -1.4986   -0.6674    0.0000 C   0  0
   -1.7536   -1.4525    0.0000 C   0  0
   -1.2128   -2.0668    0.0000 N   0  0
   -1.6438   -2.7698    0.0000 C   0  0
   -1.4096   -3.5609    0.0000 C   0  0
   -1.9776   -4.1592    0.0000 C   0  0
   -2.7798   -3.9665    0.0000 C   0  0
   -3.0140   -3.1755    0.0000 C   0  0
   -2.4460   -2.5771    0.0000 C   0  0
   -2.5107   -1.7551    0.0000 N   0  0
   -1.7432   -4.9507    0.0000 N   0  0
   -0.9413   -5.1447    0.0000 C   0  0
   -0.7084   -5.9361    0.0000 C   0  0
   -1.2773   -6.5336    0.0000 C   0  0
   -2.0792   -6.3396    0.0000 C   0  0
   -2.3121   -5.5482    0.0000 C   0  0
   -1.0442   -7.3254    0.0000 N   0  0
   -0.2427   -7.5207    0.0000 C   0  0
   -0.0109   -8.3125    0.0000 C   0  0
   -0.5808   -8.9091    0.0000 C   0  0
   -1.3824   -8.7138    0.0000 C   0  0
   -1.6141   -7.9220    0.0000 C   0  0
   -0.7144   -0.4125    0.0000 C   0  0
    0.0000   -0.8250    0.0000 C   0  0
    2.1294   -4.5448    0.0000 C   0  0
    2.1260   -5.3698    0.0000 C   0  0
    2.8388   -5.7852    0.0000 C   0  0
    3.5549   -5.3756    0.0000 C   0  0
    3.5583   -4.5506    0.0000 C   0  0
    2.8456   -4.1352    0.0000 C   0  0
   -2.9779   -1.4648    0.0000 H   0  0
   -1.6685    1.1905    0.0000 H   0  0
    1.9053   -0.5525    0.0000 H   0  0
  1  2  1  0
  1 39  1  0
  2  3  1  0
  3  4  1  0
  4  5  1  0
  5  6  1  0
  5  8  1  0
  6  7  1  0
  7  2  1  0
  8  9  1  0
  8 47  1  0
  9 10  2  0
 10 11  1  0
 11 12  2  0
 12 13  1  0
 13 14  1  0
 13 46  1  0
 14 15  2  0
 15 16  1  0
 15 37  1  0
 16 17  2  0
 17 18  1  0
 18 19  2  0
 19 20  1  0
 20 21  2  0
 20 25  1  0
 21 22  1  0
 22 23  2  0
 23 18  1  0
 23 24  1  0
 24 16  1  0
 24 45  1  0
 25 26  1  0
 26 27  1  0
 27 28  1  0
 28 29  1  0
 28 31  1  0
 29 30  1  0
 30 25  1  0
 31 32  1  0
 32 33  1  0
 33 34  1  0
 34 35  1  0
 35 36  1  0
 36 31  1  0
 37 12  1  0
 37 38  2  0
 38  9  1  0
 39 40  2  0
 40 41  1  0
 41 42  2  0
 42 43  1  0
 43 44  2  0
 44 39  1  0
M  END
> <CMPD_CHEMBLID>
CHEMBL209753

> <STANDARD_TYPE>
IC50

> <RELATION>
=

> <STANDARD_VALUE>
7

> <STANDARD_UNITS>
nM

> <Molecular_Weight>
588.78816

$$$$

  SciTegic11272012012D

 35 38  0  0  0  0            999 V2000
    1.9982   -1.9833    0.0000 C   0  0
    1.4273   -1.6521    0.0000 C   0  0
    0.8551   -1.9812    0.0000 C   0  0
    1.4285   -0.8267    0.0000 O   0  0
    0.7144   -0.4125    0.0000 C   0  0
    0.7144    0.4125    0.0000 N   0  0
    0.0000    0.8250    0.0000 C   0  0
    0.0017    1.6504    0.0000 N   0  0
    0.7171    2.0622    0.0000 C   0  0
    0.7201    2.8872    0.0000 C   0  0
    1.4359    3.2972    0.0000 C   0  0
    2.1490    2.8823    0.0000 C   0  0
    2.1461    2.0573    0.0000 C   0  0
    1.4302    1.6472    0.0000 C   0  0
    2.8653    3.2925    0.0000 P   0  0
    2.8680    3.9525    0.0000 O   0  0
    3.4356    2.9604    0.0000 C   0  0
    3.4381    3.6203    0.0000 C   0  0
   -0.7144    0.4125    0.0000 C   0  0
   -1.4986    0.6674    0.0000 N   0  0
   -1.9836    0.0000    0.0000 C   0  0
   -1.4986   -0.6674    0.0000 N   0  0
   -1.7547   -1.4507    0.0000 C   0  0
   -2.5623   -1.6213    0.0000 C   0  0
   -2.8189   -2.4059    0.0000 C   0  0
   -3.6259   -2.5776    0.0000 C   0  0
   -4.0676   -2.0872    0.0000 C   0  0
   -3.8807   -3.3623    0.0000 C   0  0
   -3.3285   -3.9752    0.0000 C   0  0
   -2.5216   -3.8036    0.0000 C   0  0
   -2.2668   -3.0189    0.0000 C   0  0
   -1.6212   -2.8816    0.0000 C   0  0
   -0.7144   -0.4125    0.0000 C   0  0
    0.0000   -0.8250    0.0000 N   0  0
   -0.4742    1.9263    0.0000 H   0  0
  1  2  1  0
  2  3  1  0
  2  4  1  0
  4  5  1  0
  5  6  2  0
  6  7  1  0
  7  8  1  0
  7 19  2  0
  8  9  1  0
  8 35  1  0
  9 10  2  0
 10 11  1  0
 11 12  2  0
 12 13  1  0
 12 15  1  0
 13 14  2  0
 14  9  1  0
 15 16  2  0
 15 17  1  0
 15 18  1  0
 19 20  1  0
 20 21  2  0
 21 22  1  0
 22 23  1  0
 22 33  1  0
 23 24  2  0
 24 25  1  0
 25 26  2  0
 26 27  1  0
 26 28  1  0
 28 29  2  0
 29 30  1  0
 30 31  2  0
 31 25  1  0
 31 32  1  0
 33 19  1  0
 33 34  2  0
 34  5  1  0
M  END
> <CMPD_CHEMBLID>
CHEMBL516498

> <STANDARD_TYPE>
IC50

> <RELATION>
=

> <STANDARD_VALUE>
7.32

> <STANDARD_UNITS>
nM

> <Molecular_Weight>
475.52246

$$$$

  SciTegic11272012012D

 34 37  0  0  0  0            999 V2000
    1.2861   -0.7425    0.0000 C   0  0
    0.7144   -0.4125    0.0000 N   0  0
    0.7144    0.4125    0.0000 C   0  0
    1.2861    0.7425    0.0000 O   0  0
    0.0000    0.8250    0.0000 C   0  0
   -0.7144    0.4125    0.0000 C   0  0
   -0.7144   -0.4125    0.0000 C   0  0
   -1.4290   -0.8250    0.0000 C   0  0
   -1.4290   -1.6500    0.0000 N   0  0
   -0.7144   -2.0625    0.0000 C   0  0
   -0.7127   -2.8879    0.0000 N   0  0
    0.0027   -3.2997    0.0000 C   0  0
    0.0056   -4.1247    0.0000 C   0  0
    0.7215   -4.5347    0.0000 C   0  0
    1.4345   -4.1197    0.0000 C   0  0
    2.1517   -4.5285    0.0000 N   0  0
    2.8645   -4.1123    0.0000 C   0  0
    2.8610   -3.4523    0.0000 O   0  0
    3.5817   -4.5211    0.0000 C   0  0
    4.1516   -4.1883    0.0000 Cl  0  0
    1.4317   -3.2947    0.0000 C   0  0
    0.7158   -2.8847    0.0000 C   0  0
    0.0000   -1.6500    0.0000 N   0  0
    0.0000   -0.8250    0.0000 C   0  0
    0.0000    1.6504    0.0000 C   0  0
    0.7138    2.0641    0.0000 C   0  0
    1.2859    1.7350    0.0000 Cl  0  0
    0.7125    2.8891    0.0000 C   0  0
   -0.0026    3.3005    0.0000 C   0  0
   -0.7164    2.8868    0.0000 C   0  0
   -0.7151    2.0618    0.0000 C   0  0
   -1.2862    1.7310    0.0000 Cl  0  0
    2.1545   -5.0785    0.0000 H   0  0
   -1.1886   -3.1638    0.0000 H   0  0
  1  2  1  0
  2  3  1  0
  3  4  2  0
  3  5  1  0
  5  6  2  0
  5 25  1  0
  6  7  1  0
  7  8  2  0
  8  9  1  0
  9 10  2  0
 10 11  1  0
 10 23  1  0
 11 12  1  0
 11 34  1  0
 12 13  2  0
 13 14  1  0
 14 15  2  0
 15 16  1  0
 15 21  1  0
 16 17  1  0
 16 33  1  0
 17 18  2  0
 17 19  1  0
 19 20  1  0
 21 22  2  0
 22 12  1  0
 23 24  2  0
 24  2  1  0
 24  7  1  0
 25 26  2  0
 26 27  1  0
 26 28  1  0
 28 29  2  0
 29 30  1  0
 30 31  2  0
 31 25  1  0
 31 32  1  0
M  END
> <CMPD_CHEMBLID>
CHEMBL565587

> <STANDARD_TYPE>
IC50

> <RELATION>
=

> <STANDARD_VALUE>
7.6

> <STANDARD_UNITS>
nM

> <Molecular_Weight>
488.75374

$$$$

  SciTegic11272012012D

 34 37  0  0  0  0            999 V2000
    1.2861   -0.7425    0.0000 C   0  0
    0.7144   -0.4125    0.0000 C   0  0
    0.7144    0.4125    0.0000 C   0  0
    0.0000    0.8250    0.0000 C   0  0
   -0.7144    0.4125    0.0000 C   0  0
   -0.7144   -0.4125    0.0000 C   0  0
   -1.4290   -0.8250    0.0000 N   0  0
   -1.4290   -1.6500    0.0000 N   0  0
   -0.7144   -2.0625    0.0000 C   0  0
   -0.7127   -2.8879    0.0000 N   0  0
    0.0027   -3.2997    0.0000 C   0  0
    0.0056   -4.1247    0.0000 C   0  0
    0.7215   -4.5347    0.0000 C   0  0
    1.4345   -4.1197    0.0000 C   0  0
    1.4317   -3.2947    0.0000 C   0  0
    0.7158   -2.8847    0.0000 C   0  0
    2.1508   -4.5300    0.0000 S   0  0
    2.7211   -4.1978    0.0000 O   0  0
    2.7237   -4.8577    0.0000 O   0  0
    2.1542   -5.3554    0.0000 N   0  0
    0.0000   -1.6500    0.0000 N   0  0
    0.0000   -0.8250    0.0000 C   0  0
    0.0000    1.6504    0.0000 C   0  0
   -0.7151    2.0618    0.0000 C   0  0
   -0.7164    2.8868    0.0000 C   0  0
   -1.4311    3.2999    0.0000 O   0  0
   -0.0026    3.3005    0.0000 C   0  0
    0.7125    2.8891    0.0000 C   0  0
    0.7138    2.0641    0.0000 C   0  0
    1.2859    1.7350    0.0000 Cl  0  0
   -1.4312    3.8499    0.0000 H   0  0
    2.6315   -5.6288    0.0000 H   0  0
    1.6789   -5.6322    0.0000 H   0  0
   -1.1886   -3.1638    0.0000 H   0  0
  1  2  1  0
  2  3  2  0
  3  4  1  0
  4  5  2  0
  4 23  1  0
  5  6  1  0
  6  7  2  0
  7  8  1  0
  8  9  2  0
  9 10  1  0
  9 21  1  0
 10 11  1  0
 10 34  1  0
 11 12  2  0
 12 13  1  0
 13 14  2  0
 14 15  1  0
 14 17  1  0
 15 16  2  0
 16 11  1  0
 17 18  2  0
 17 19  2  0
 17 20  1  0
 20 32  1  0
 20 33  1  0
 21 22  2  0
 22  2  1  0
 22  6  1  0
 23 24  2  0
 24 25  1  0
 25 26  1  0
 25 27  2  0
 26 31  1  0
 27 28  1  0
 28 29  2  0
 29 23  1  0
 29 30  1  0
M  END
> <CMPD_CHEMBLID>
CHEMBL249820

> <STANDARD_TYPE>
Ki

> <RELATION>
=

> <STANDARD_VALUE>
7.7

> <STANDARD_UNITS>
nM

> <Molecular_Weight>
441.89074

$$$$

  SciTegic11272012012D

 29 32  0  0  0  0            999 V2000
    2.1456    0.2461    0.0000 C   0  0
    2.1445   -0.4139    0.0000 C   0  0
    2.8583   -0.8275    0.0000 C   0  0
    2.8570   -1.6525    0.0000 C   0  0
    2.1419   -2.0639    0.0000 C   0  0
    1.4281   -1.6502    0.0000 C   0  0
    1.4293   -0.8252    0.0000 C   0  0
    0.7145   -0.4125    0.0000 C   0  0
    0.7145    0.4125    0.0000 C   0  0
    0.0000    0.8250    0.0000 C   0  0
   -0.7145    0.4125    0.0000 C   0  0
   -1.4290    0.8250    0.0000 C   0  0
   -2.1434    0.4125    0.0000 C   0  0
   -2.8592    0.8237    0.0000 N   0  0
   -2.1434   -0.4125    0.0000 N   0  0
   -1.4290   -0.8250    0.0000 C   0  0
   -0.7145   -0.4125    0.0000 C   0  0
    0.0000   -0.8250    0.0000 C   0  0
    2.1389   -2.8894    0.0000 C   0  0
    2.7094   -3.2213    0.0000 O   0  0
    1.4228   -3.2999    0.0000 N   0  0
    1.4198   -4.1254    0.0000 C   0  0
    0.8471   -4.4535    0.0000 C   0  0
    2.1730   -3.8888    0.0000 C   0  0
    2.3837   -4.6864    0.0000 C   0  0
    1.5861   -4.8972    0.0000 C   0  0
    0.9474   -3.0233    0.0000 H   0  0
   -3.3351    0.5481    0.0000 H   0  0
   -2.8601    1.3738    0.0000 H   0  0
  1  2  1  0
  2  3  2  0
  3  4  1  0
  4  5  2  0
  5  6  1  0
  5 19  1  0
  6  7  2  0
  7  2  1  0
  7  8  1  0
  8  9  2  0
  9 10  1  0
 10 11  2  0
 11 12  1  0
 12 13  2  0
 13 14  1  0
 13 15  1  0
 14 28  1  0
 14 29  1  0
 15 16  2  0
 16 17  1  0
 17 11  1  0
 17 18  2  0
 18  8  1  0
 19 20  2  0
 19 21  1  0
 21 22  1  0
 21 27  1  0
 22 23  1  0
 22 24  1  0
 24 25  1  0
 25 26  1  0
 26 22  1  0
M  END
> <CMPD_CHEMBLID>
CHEMBL3689750

> <STANDARD_TYPE>
Ki

> <RELATION>
=

> <STANDARD_VALUE>
7.7

> <STANDARD_UNITS>
nM

> <Molecular_Weight>
345.43752

$$$$

  SciTegic11272012012D

 37 41  0  0  0  0            999 V2000
   -0.6488   -1.5370    0.0000 C   0  0
   -0.2626   -2.0722    0.0000 O   0  0
    0.5586   -1.9890    0.0000 C   0  0
    0.8954   -1.2354    0.0000 C   0  0
    1.5520   -1.1676    0.0000 O   0  0
    0.4125   -0.5678    0.0000 N   0  0
    0.6674    0.2169    0.0000 C   0  0
    0.0000    0.7018    0.0000 C   0  0
   -0.2543    1.4855    0.0000 N   0  0
   -1.0793    1.4854    0.0000 N   0  0
   -1.3342    0.7009    0.0000 C   0  0
   -2.1183    0.4474    0.0000 N   0  0
   -2.7312    1.0003    0.0000 C   0  0
   -2.5932    1.6457    0.0000 O   0  0
   -3.5167    0.7465    0.0000 C   0  0
   -4.1300    1.2982    0.0000 C   0  0
   -4.9145    1.0429    0.0000 C   0  0
   -5.0857    0.2358    0.0000 C   0  0
   -4.4723   -0.3159    0.0000 C   0  0
   -3.6878   -0.0606    0.0000 C   0  0
   -5.8706   -0.0196    0.0000 N   0  0
   -6.4849    0.5312    0.0000 C   0  0
   -7.2689    0.2746    0.0000 C   0  0
   -7.4388   -0.5327    0.0000 N   0  0
   -8.0661   -0.7379    0.0000 C   0  0
   -6.8246   -1.0834    0.0000 C   0  0
   -6.0405   -0.8269    0.0000 C   0  0
   -0.6674    0.2169    0.0000 C   0  0
   -0.4125   -0.5678    0.0000 C   0  0
    1.0425   -2.6578    0.0000 C   0  0
    0.7069   -3.4115    0.0000 C   0  0
    1.1918   -4.0790    0.0000 C   0  0
    2.0123   -3.9927    0.0000 C   0  0
    2.3479   -3.2391    0.0000 C   0  0
    1.8629   -2.5717    0.0000 C   0  0
   -2.2333   -0.0904    0.0000 H   0  0
   -1.4025    1.9304    0.0000 H   0  0
  1  2  1  0
  2  3  1  0
  3  4  1  0
  3 30  1  0
  4  5  2  0
  4  6  1  0
  6  7  1  0
  7  8  1  0
  8  9  2  0
  9 10  1  0
 10 11  1  0
 10 37  1  0
 11 12  1  0
 11 28  2  0
 12 13  1  0
 12 36  1  0
 13 14  2  0
 13 15  1  0
 15 16  2  0
 16 17  1  0
 17 18  2  0
 18 19  1  0
 18 21  1  0
 19 20  2  0
 20 15  1  0
 21 22  1  0
 22 23  1  0
 23 24  1  0
 24 25  1  0
 24 26  1  0
 26 27  1  0
 27 21  1  0
 28  8  1  0
 28 29  1  0
 29  6  1  0
 30 31  2  0
 31 32  1  0
 32 33  2  0
 33 34  1  0
 34 35  2  0
 35 30  1  0
M  END
> <CMPD_CHEMBLID>
CHEMBL402548

> <STANDARD_TYPE>
IC50

> <RELATION>
=

> <STANDARD_VALUE>
7.94

> <STANDARD_UNITS>
nM

> <Molecular_Weight>
474.5548

$$$$

  SciTegic11272012012D

 43 46  0  0  0  0            999 V2000
    6.2913   -0.4855    0.0000 C   0  0
    5.7202   -0.8163    0.0000 C   0  0
    5.0045   -0.4050    0.0000 N   0  0
    5.0013    0.4204    0.0000 C   0  0
    4.4287    0.7486    0.0000 C   0  0
    4.2902   -0.8188    0.0000 C   0  0
    3.5745   -0.4075    0.0000 C   0  0
    2.8602   -0.8213    0.0000 C   0  0
    2.1445   -0.4100    0.0000 N   0  0
    1.4302   -0.8237    0.0000 C   0  0
    1.4313   -1.4837    0.0000 O   0  0
    0.7145   -0.4125    0.0000 C   0  0
    0.7145    0.4125    0.0000 C   0  0
    0.0000    0.8250    0.0000 N   0  0
   -0.7145    0.4125    0.0000 C   0  0
   -1.4285    0.8267    0.0000 N   0  0
   -0.7145   -0.4125    0.0000 C   0  0
   -1.3273   -0.9642    0.0000 C   0  0
   -0.9918   -1.7178    0.0000 C   0  0
   -0.1713   -1.6316    0.0000 S   0  0
    0.0000   -0.8250    0.0000 C   0  0
   -2.1347   -0.7924    0.0000 C   0  0
   -2.4465   -0.0316    0.0000 C   0  0
   -3.2640    0.0788    0.0000 C   0  0
   -3.7684   -0.5741    0.0000 C   0  0
   -4.5867   -0.4654    0.0000 N   0  0
   -5.0904   -1.1194    0.0000 C   0  0
   -4.8387   -1.7295    0.0000 O   0  0
   -5.9086   -1.0107    0.0000 N   0  0
   -6.4123   -1.6646    0.0000 C   0  0
   -7.2303   -1.5572    0.0000 C   0  0
   -7.7324   -2.2118    0.0000 C   0  0
   -7.4165   -2.9739    0.0000 C   0  0
   -6.5985   -3.0814    0.0000 C   0  0
   -6.3459   -3.6912    0.0000 C   0  0
   -6.0964   -2.4268    0.0000 C   0  0
   -3.4552   -1.3373    0.0000 C   0  0
   -2.6375   -1.4477    0.0000 C   0  0
   -6.1183   -0.5022    0.0000 H   0  0
   -4.7964    0.0430    0.0000 H   0  0
   -1.4277    1.3767    0.0000 H   0  0
   -1.9053    0.5525    0.0000 H   0  0
    2.1435    0.1400    0.0000 H   0  0
  1  2  1  0
  2  3  1  0
  3  4  1  0
  3  6  1  0
  4  5  1  0
  6  7  1  0
  7  8  1  0
  8  9  1  0
  9 10  1  0
  9 43  1  0
 10 11  2  0
 10 12  1  0
 12 13  2  0
 13 14  1  0
 14 15  2  0
 15 16  1  0
 15 17  1  0
 16 41  1  0
 16 42  1  0
 17 18  1  0
 18 19  2  0
 18 22  1  0
 19 20  1  0
 20 21  1  0
 21 12  1  0
 21 17  2  0
 22 23  2  0
 23 24  1  0
 24 25  2  0
 25 26  1  0
 25 37  1  0
 26 27  1  0
 26 40  1  0
 27 28  2  0
 27 29  1  0
 29 30  1  0
 29 39  1  0
 30 31  2  0
 31 32  1  0
 32 33  2  0
 33 34  1  0
 34 35  1  0
 34 36  2  0
 36 30  1  0
 37 38  2  0
 38 22  1  0
M  END
> <CMPD_CHEMBLID>
CHEMBL1999414

> <STANDARD_TYPE>
Ki

> <RELATION>
=

> <STANDARD_VALUE>
7.94

> <STANDARD_UNITS>
nM

> <Molecular_Weight>
530.68426

$$$$

  SciTegic11272012012D

 35 37  0  0  0  0            999 V2000
    2.0015   -1.9807    0.0000 C   0  0
    1.4299   -1.6507    0.0000 N   0  0
    1.4294   -0.8252    0.0000 S   0  0
    2.0008   -0.4951    0.0000 O   0  0
    2.0011   -1.1550    0.0000 O   0  0
    0.7145   -0.4125    0.0000 C   0  0
    0.7145    0.4125    0.0000 C   0  0
    0.0000    0.8250    0.0000 C   0  0
   -0.7145    0.4125    0.0000 C   0  0
   -0.7145   -0.4125    0.0000 C   0  0
    0.0000   -0.8250    0.0000 C   0  0
   -0.0017   -1.6505    0.0000 N   0  0
   -0.7172   -2.0622    0.0000 C   0  0
   -1.4302   -1.6472    0.0000 N   0  0
   -2.1462   -2.0573    0.0000 C   0  0
   -2.8605   -1.6435    0.0000 N   0  0
   -3.5762   -2.0548    0.0000 C   0  0
   -4.2907   -1.6424    0.0000 C   0  0
   -5.0052   -2.0549    0.0000 C   0  0
   -5.7192   -1.6407    0.0000 O   0  0
   -5.7183   -0.9807    0.0000 C   0  0
   -5.0052   -2.8799    0.0000 C   0  0
   -5.7192   -3.2941    0.0000 O   0  0
   -5.7183   -3.9541    0.0000 C   0  0
   -4.2907   -3.2924    0.0000 C   0  0
   -4.2890   -4.1179    0.0000 O   0  0
   -3.7169   -4.4470    0.0000 C   0  0
   -3.5762   -2.8799    0.0000 C   0  0
   -2.1490   -2.8823    0.0000 N   0  0
   -1.4360   -3.2972    0.0000 C   0  0
   -0.7201   -2.8872    0.0000 C   0  0
   -0.1496   -3.2192    0.0000 Cl  0  0
   -2.8595   -1.0935    0.0000 H   0  0
    0.4742   -1.9263    0.0000 H   0  0
    0.9537   -1.9259    0.0000 H   0  0
  1  2  1  0
  2  3  1  0
  2 35  1  0
  3  4  2  0
  3  5  2  0
  3  6  1  0
  6  7  2  0
  7  8  1  0
  8  9  2  0
  9 10  1  0
 10 11  2  0
 11  6  1  0
 11 12  1  0
 12 13  1  0
 12 34  1  0
 13 14  2  0
 14 15  1  0
 15 16  1  0
 15 29  2  0
 16 17  1  0
 16 33  1  0
 17 18  2  0
 18 19  1  0
 19 20  1  0
 19 22  2  0
 20 21  1  0
 22 23  1  0
 22 25  1  0
 23 24  1  0
 25 26  1  0
 25 28  2  0
 26 27  1  0
 28 17  1  0
 29 30  1  0
 30 31  2  0
 31 13  1  0
 31 32  1  0
M  END
> <CMPD_CHEMBLID>
CHEMBL1993661

> <STANDARD_TYPE>
Ki

> <RELATION>
=

> <STANDARD_VALUE>
7.94

> <STANDARD_UNITS>
nM

> <Molecular_Weight>
479.93718

$$$$

  SciTegic11272012012D

 43 46  0  0  0  0            999 V2000
    6.2912   -0.4855    0.0000 C   0  0
    5.7202   -0.8163    0.0000 C   0  0
    5.0045   -0.4050    0.0000 N   0  0
    5.0013    0.4204    0.0000 C   0  0
    4.4287    0.7486    0.0000 C   0  0
    4.2902   -0.8188    0.0000 C   0  0
    3.5745   -0.4075    0.0000 C   0  0
    2.8602   -0.8213    0.0000 C   0  0
    2.1445   -0.4100    0.0000 N   0  0
    1.4302   -0.8237    0.0000 C   0  0
    1.4313   -1.4837    0.0000 O   0  0
    0.7145   -0.4125    0.0000 C   0  0
    0.7145    0.4125    0.0000 C   0  0
    0.0000    0.8250    0.0000 N   0  0
   -0.7145    0.4125    0.0000 C   0  0
   -1.4285    0.8267    0.0000 N   0  0
   -0.7145   -0.4125    0.0000 C   0  0
   -1.3273   -0.9642    0.0000 C   0  0
   -0.9918   -1.7178    0.0000 C   0  0
   -0.1713   -1.6316    0.0000 S   0  0
    0.0000   -0.8250    0.0000 C   0  0
   -2.1347   -0.7924    0.0000 C   0  0
   -2.4465   -0.0316    0.0000 C   0  0
   -3.2640    0.0788    0.0000 C   0  0
   -3.7684   -0.5741    0.0000 C   0  0
   -4.5867   -0.4654    0.0000 N   0  0
   -5.0904   -1.1194    0.0000 C   0  0
   -4.8387   -1.7295    0.0000 O   0  0
   -5.9086   -1.0107    0.0000 N   0  0
   -6.4123   -1.6646    0.0000 C   0  0
   -7.2303   -1.5572    0.0000 C   0  0
   -7.7324   -2.2118    0.0000 C   0  0
   -7.4165   -2.9739    0.0000 C   0  0
   -6.5985   -3.0814    0.0000 C   0  0
   -6.3459   -3.6912    0.0000 F   0  0
   -6.0964   -2.4268    0.0000 C   0  0
   -3.4552   -1.3373    0.0000 C   0  0
   -2.6375   -1.4477    0.0000 C   0  0
   -6.1183   -0.5022    0.0000 H   0  0
   -4.7964    0.0430    0.0000 H   0  0
   -1.4277    1.3767    0.0000 H   0  0
   -1.9053    0.5525    0.0000 H   0  0
    2.1435    0.1400    0.0000 H   0  0
  1  2  1  0
  2  3  1  0
  3  4  1  0
  3  6  1  0
  4  5  1  0
  6  7  1  0
  7  8  1  0
  8  9  1  0
  9 10  1  0
  9 43  1  0
 10 11  2  0
 10 12  1  0
 12 13  2  0
 13 14  1  0
 14 15  2  0
 15 16  1  0
 15 17  1  0
 16 41  1  0
 16 42  1  0
 17 18  1  0
 18 19  2  0
 18 22  1  0
 19 20  1  0
 20 21  1  0
 21 12  1  0
 21 17  2  0
 22 23  2  0
 23 24  1  0
 24 25  2  0
 25 26  1  0
 25 37  1  0
 26 27  1  0
 26 40  1  0
 27 28  2  0
 27 29  1  0
 29 30  1  0
 29 39  1  0
 30 31  2  0
 31 32  1  0
 32 33  2  0
 33 34  1  0
 34 35  1  0
 34 36  2  0
 36 30  1  0
 37 38  2  0
 38 22  1  0
M  END
> <CMPD_CHEMBLID>
CHEMBL1996649

> <STANDARD_TYPE>
Ki

> <RELATION>
=

> <STANDARD_VALUE>
7.94

> <STANDARD_UNITS>
nM

> <Molecular_Weight>
534.64814

$$$$

  SciTegic11272012012D

 25 28  0  0  0  0            999 V2000
    0.1358   -3.2152    0.0000 Cl  0  0
    0.7086   -2.8872    0.0000 C   0  0
    1.4216   -3.3022    0.0000 C   0  0
    2.1375   -2.8922    0.0000 C   0  0
    2.1403   -2.0672    0.0000 C   0  0
    1.4273   -1.6521    0.0000 C   0  0
    1.4285   -0.8267    0.0000 O   0  0
    0.7144   -0.4125    0.0000 C   0  0
    0.7144    0.4125    0.0000 C   0  0
    0.0000    0.8250    0.0000 C   0  0
   -0.7144    0.4125    0.0000 C   0  0
   -1.4290    0.8250    0.0000 C   0  0
   -2.1434    0.4125    0.0000 C   0  0
   -2.8591    0.8237    0.0000 N   0  0
   -3.5734    0.4100    0.0000 C   0  0
   -3.5722   -0.2500    0.0000 O   0  0
   -4.2891    0.8213    0.0000 C   0  0
   -5.0706    0.7961    0.0000 C   0  0
   -4.6581    1.5106    0.0000 C   0  0
   -2.1434   -0.4125    0.0000 N   0  0
   -1.4290   -0.8250    0.0000 C   0  0
   -0.7144   -0.4125    0.0000 C   0  0
    0.0000   -0.8250    0.0000 C   0  0
    0.7114   -2.0622    0.0000 C   0  0
   -2.8601    1.3737    0.0000 H   0  0
  1  2  1  0
  2  3  2  0
  3  4  1  0
  4  5  2  0
  5  6  1  0
  6  7  1  0
  6 24  2  0
  7  8  1  0
  8  9  2  0
  9 10  1  0
 10 11  2  0
 11 12  1  0
 12 13  2  0
 13 14  1  0
 13 20  1  0
 14 15  1  0
 14 25  1  0
 15 16  2  0
 15 17  1  0
 17 18  1  0
 18 19  1  0
 19 17  1  0
 20 21  2  0
 21 22  1  0
 22 11  1  0
 22 23  2  0
 23  8  1  0
 24  2  1  0
M  END
> <CMPD_CHEMBLID>
CHEMBL3685107

> <STANDARD_TYPE>
Ki

> <RELATION>
=

> <STANDARD_VALUE>
8

> <STANDARD_UNITS>
nM

> <Molecular_Weight>
338.7876

$$$$

  SciTegic11272012012D

 27 30  0  0  0  0            999 V2000
    2.1455    0.2461    0.0000 C   0  0
    2.1445   -0.4139    0.0000 C   0  0
    2.8583   -0.8275    0.0000 C   0  0
    2.8570   -1.6525    0.0000 C   0  0
    2.1419   -2.0639    0.0000 C   0  0
    2.1408   -2.7239    0.0000 F   0  0
    1.4281   -1.6502    0.0000 C   0  0
    1.4293   -0.8252    0.0000 C   0  0
    0.7144   -0.4125    0.0000 C   0  0
    0.7144    0.4125    0.0000 C   0  0
    0.0000    0.8250    0.0000 C   0  0
    0.0017    1.6504    0.0000 O   0  0
   -0.7144    0.4125    0.0000 C   0  0
   -1.4290    0.8250    0.0000 C   0  0
   -2.1434    0.4125    0.0000 C   0  0
   -2.8591    0.8237    0.0000 N   0  0
   -3.5734    0.4100    0.0000 C   0  0
   -3.5722   -0.2500    0.0000 O   0  0
   -4.2891    0.8213    0.0000 C   0  0
   -5.0706    0.7961    0.0000 C   0  0
   -4.6581    1.5106    0.0000 C   0  0
   -2.1434   -0.4125    0.0000 N   0  0
   -1.4290   -0.8250    0.0000 C   0  0
   -0.7144   -0.4125    0.0000 C   0  0
    0.0000   -0.8250    0.0000 N   0  0
   -2.8601    1.3737    0.0000 H   0  0
    0.4784    1.9248    0.0000 H   0  0
  1  2  1  0
  2  3  2  0
  3  4  1  0
  4  5  2  0
  5  6  1  0
  5  7  1  0
  7  8  2  0
  8  2  1  0
  8  9  1  0
  9 10  2  0
 10 11  1  0
 11 12  1  0
 11 13  2  0
 12 27  1  0
 13 14  1  0
 14 15  2  0
 15 16  1  0
 15 22  1  0
 16 17  1  0
 16 26  1  0
 17 18  2  0
 17 19  1  0
 19 20  1  0
 20 21  1  0
 21 19  1  0
 22 23  2  0
 23 24  1  0
 24 13  1  0
 24 25  2  0
 25  9  1  0
M  END
> <CMPD_CHEMBLID>
CHEMBL3689687

> <STANDARD_TYPE>
Ki

> <RELATION>
=

> <STANDARD_VALUE>
8

> <STANDARD_UNITS>
nM

> <Molecular_Weight>
337.34764

$$$$

  SciTegic11272012012D

 32 35  0  0  0  0            999 V2000
    1.2861   -0.7425    0.0000 C   0  0
    0.7144   -0.4125    0.0000 N   0  0
    0.7144    0.4125    0.0000 C   0  0
    1.2861    0.7425    0.0000 O   0  0
    0.0000    0.8250    0.0000 C   0  0
   -0.7144    0.4125    0.0000 C   0  0
   -0.7144   -0.4125    0.0000 C   0  0
   -1.4290   -0.8250    0.0000 C   0  0
   -1.4290   -1.6500    0.0000 N   0  0
   -0.7144   -2.0625    0.0000 C   0  0
   -0.7127   -2.8879    0.0000 N   0  0
    0.0027   -3.2997    0.0000 C   0  0
    0.0044   -4.1251    0.0000 C   0  0
    0.7188   -4.5377    0.0000 C   0  0
    0.7189   -5.3627    0.0000 C   0  0
    0.0045   -5.7752    0.0000 C   0  0
   -0.7100   -5.3627    0.0000 C   0  0
   -1.4258   -5.7740    0.0000 N   0  0
   -0.7100   -4.5377    0.0000 C   0  0
    0.0000   -1.6500    0.0000 N   0  0
    0.0000   -0.8250    0.0000 C   0  0
    0.0000    1.6504    0.0000 C   0  0
    0.7138    2.0641    0.0000 C   0  0
    1.2859    1.7350    0.0000 Cl  0  0
    0.7125    2.8891    0.0000 C   0  0
   -0.0026    3.3005    0.0000 C   0  0
   -0.7164    2.8868    0.0000 C   0  0
   -0.7151    2.0618    0.0000 C   0  0
   -1.2862    1.7310    0.0000 Cl  0  0
   -1.9017   -5.4983    0.0000 H   0  0
   -1.4267   -6.3240    0.0000 H   0  0
   -1.1886   -3.1638    0.0000 H   0  0
  1  2  1  0
  2  3  1  0
  3  4  2  0
  3  5  1  0
  5  6  2  0
  5 22  1  0
  6  7  1  0
  7  8  2  0
  8  9  1  0
  9 10  2  0
 10 11  1  0
 10 20  1  0
 11 12  1  0
 11 32  1  0
 12 13  1  0
 13 14  2  0
 14 15  1  0
 15 16  2  0
 16 17  1  0
 17 18  1  0
 17 19  2  0
 18 30  1  0
 18 31  1  0
 19 13  1  0
 20 21  2  0
 21  2  1  0
 21  7  1  0
 22 23  2  0
 23 24  1  0
 23 25  1  0
 25 26  2  0
 26 27  1  0
 27 28  2  0
 28 22  1  0
 28 29  1  0
M  END
> <CMPD_CHEMBLID>
CHEMBL1223343

> <STANDARD_TYPE>
Ki

> <RELATION>
=

> <STANDARD_VALUE>
8

> <STANDARD_UNITS>
nM

> <Molecular_Weight>
426.29858

$$$$

  SciTegic11272012012D

 23 25  0  0  0  0            999 V2000
    2.7111   -3.2231    0.0000 C   0  0
    2.1402   -2.8919    0.0000 O   0  0
    2.1414   -2.0664    0.0000 C   0  0
    1.4273   -1.6522    0.0000 C   0  0
    0.8552   -1.9812    0.0000 C   0  0
    1.4285   -0.8267    0.0000 O   0  0
    0.7145   -0.4125    0.0000 C   0  0
    0.7145    0.4125    0.0000 C   0  0
    0.0000    0.8250    0.0000 C   0  0
   -0.7145    0.4125    0.0000 C   0  0
   -1.4290    0.8250    0.0000 C   0  0
   -2.1435    0.4125    0.0000 C   0  0
   -2.8592    0.8238    0.0000 N   0  0
   -3.5735    0.4100    0.0000 C   0  0
   -3.5723   -0.2500    0.0000 O   0  0
   -4.2892    0.8213    0.0000 C   0  0
   -5.0707    0.7961    0.0000 C   0  0
   -4.6582    1.5106    0.0000 C   0  0
   -2.1435   -0.4125    0.0000 N   0  0
   -1.4290   -0.8250    0.0000 C   0  0
   -0.7145   -0.4125    0.0000 C   0  0
    0.0000   -0.8250    0.0000 C   0  0
   -2.8602    1.3738    0.0000 H   0  0
  1  2  1  0
  2  3  1  0
  3  4  1  0
  4  5  1  0
  4  6  1  0
  6  7  1  0
  7  8  2  0
  8  9  1  0
  9 10  2  0
 10 11  1  0
 11 12  2  0
 12 13  1  0
 12 19  1  0
 13 14  1  0
 13 23  1  0
 14 15  2  0
 14 16  1  0
 16 17  1  0
 17 18  1  0
 18 16  1  0
 19 20  2  0
 20 21  1  0
 21 10  1  0
 21 22  2  0
 22  7  1  0
M  END
> <CMPD_CHEMBLID>
CHEMBL3685168

> <STANDARD_TYPE>
Ki

> <RELATION>
=

> <STANDARD_VALUE>
8

> <STANDARD_UNITS>
nM

> <Molecular_Weight>
300.3523

$$$$

  SciTegic11272012012D

 32 35  0  0  0  0            999 V2000
    1.2861   -0.7425    0.0000 C   0  0
    0.7144   -0.4125    0.0000 N   0  0
    0.7144    0.4125    0.0000 C   0  0
    1.2861    0.7425    0.0000 O   0  0
    0.0000    0.8250    0.0000 C   0  0
   -0.7144    0.4125    0.0000 C   0  0
   -0.7144   -0.4125    0.0000 C   0  0
   -1.4290   -0.8250    0.0000 C   0  0
   -1.4290   -1.6500    0.0000 N   0  0
   -0.7144   -2.0625    0.0000 C   0  0
   -0.7127   -2.8879    0.0000 N   0  0
    0.0027   -3.2997    0.0000 C   0  0
    0.0056   -4.1247    0.0000 C   0  0
    0.7215   -4.5347    0.0000 C   0  0
    1.4345   -4.1197    0.0000 C   0  0
    2.1517   -4.5285    0.0000 C   0  0
    2.8645   -4.1123    0.0000 C   0  0
    3.5817   -4.5210    0.0000 O   0  0
    1.4316   -3.2947    0.0000 C   0  0
    0.7158   -2.8847    0.0000 C   0  0
    0.0000   -1.6500    0.0000 N   0  0
    0.0000   -0.8250    0.0000 C   0  0
    0.0000    1.6504    0.0000 C   0  0
    0.7138    2.0641    0.0000 C   0  0
    1.2859    1.7350    0.0000 Cl  0  0
    0.7125    2.8891    0.0000 C   0  0
   -0.0026    3.3005    0.0000 C   0  0
   -0.7164    2.8868    0.0000 C   0  0
   -0.7151    2.0618    0.0000 C   0  0
   -1.2862    1.7310    0.0000 Cl  0  0
    4.0566   -4.2437    0.0000 H   0  0
   -1.1886   -3.1638    0.0000 H   0  0
  1  2  1  0
  2  3  1  0
  3  4  2  0
  3  5  1  0
  5  6  2  0
  5 23  1  0
  6  7  1  0
  7  8  2  0
  8  9  1  0
  9 10  2  0
 10 11  1  0
 10 21  1  0
 11 12  1  0
 11 32  1  0
 12 13  2  0
 13 14  1  0
 14 15  2  0
 15 16  1  0
 15 19  1  0
 16 17  1  0
 17 18  1  0
 18 31  1  0
 19 20  2  0
 20 12  1  0
 21 22  2  0
 22  2  1  0
 22  7  1  0
 23 24  2  0
 24 25  1  0
 24 26  1  0
 26 27  2  0
 27 28  1  0
 28 29  2  0
 29 23  1  0
 29 30  1  0
M  END
> <CMPD_CHEMBLID>
CHEMBL576218

> <STANDARD_TYPE>
IC50

> <RELATION>
=

> <STANDARD_VALUE>
8.2

> <STANDARD_UNITS>
nM

> <Molecular_Weight>
441.30992

$$$$

  SciTegic11272012012D

 43 47  0  0  0  0            999 V2000
    1.2861   -0.7425    0.0000 C   0  0
    0.7144   -0.4125    0.0000 N   0  0
    0.7144    0.4125    0.0000 C   0  0
    0.0000    0.8250    0.0000 C   0  0
   -0.7144    0.4125    0.0000 N   0  0
   -1.4302    0.8237    0.0000 C   0  0
   -2.1444    0.4100    0.0000 C   0  0
   -2.1416   -0.4150    0.0000 C   0  0
   -2.8546   -0.8300    0.0000 C   0  0
   -3.5706   -0.4200    0.0000 C   0  0
   -3.5734    0.4050    0.0000 C   0  0
   -2.8604    0.8200    0.0000 C   0  0
   -2.8633    1.6454    0.0000 C   0  0
   -3.4358    1.9738    0.0000 F   0  0
   -2.2927    1.9772    0.0000 F   0  0
   -2.8653    2.3054    0.0000 F   0  0
   -4.2849   -0.8337    0.0000 C   0  0
   -4.2837   -1.4937    0.0000 O   0  0
   -5.0006   -0.4225    0.0000 N   0  0
   -5.7149   -0.8362    0.0000 C   0  0
   -6.4307   -0.4261    0.0000 C   0  0
   -7.1438   -0.8411    0.0000 C   0  0
   -7.1409   -1.6661    0.0000 C   0  0
   -7.7114   -1.9980    0.0000 C   0  0
   -6.4251   -2.0761    0.0000 C   0  0
   -6.4206   -2.9016    0.0000 N   0  0
   -5.7037   -3.3108    0.0000 C   0  0
   -5.6980   -4.1358    0.0000 N   0  0
   -4.9807   -4.5434    0.0000 C   0  0
   -4.2691   -4.1260    0.0000 C   0  0
   -4.2747   -3.3010    0.0000 C   0  0
   -4.9920   -2.8934    0.0000 N   0  0
   -3.5628   -2.8834    0.0000 C   0  0
   -2.8448   -3.2898    0.0000 C   0  0
   -2.1338   -2.8712    0.0000 N   0  0
   -2.1408   -2.0463    0.0000 C   0  0
   -2.8588   -1.6398    0.0000 N   0  0
   -3.5697   -2.0584    0.0000 C   0  0
   -5.7120   -1.6612    0.0000 C   0  0
   -0.7144   -0.4125    0.0000 C   0  0
    0.0000   -0.8250    0.0000 C   0  0
   -6.8954   -3.1790    0.0000 H   0  0
   -5.0015    0.1275    0.0000 H   0  0
  1  2  1  0
  2  3  1  0
  3  4  1  0
  4  5  1  0
  5  6  1  0
  5 40  1  0
  6  7  1  0
  7  8  2  0
  8  9  1  0
  9 10  2  0
 10 11  1  0
 10 17  1  0
 11 12  2  0
 12  7  1  0
 12 13  1  0
 13 14  1  0
 13 15  1  0
 13 16  1  0
 17 18  2  0
 17 19  1  0
 19 20  1  0
 19 43  1  0
 20 21  2  0
 21 22  1  0
 22 23  2  0
 23 24  1  0
 23 25  1  0
 25 26  1  0
 25 39  2  0
 26 27  1  0
 26 42  1  0
 27 28  2  0
 28 29  1  0
 29 30  2  0
 30 31  1  0
 31 32  2  0
 31 33  1  0
 32 27  1  0
 33 34  2  0
 34 35  1  0
 35 36  2  0
 36 37  1  0
 37 38  2  0
 38 33  1  0
 39 20  1  0
 40 41  1  0
 41  2  1  0
M  END
> <CMPD_CHEMBLID>
CHEMBL205723

> <STANDARD_TYPE>
IC50

> <RELATION>
=

> <STANDARD_VALUE>
8.8

> <STANDARD_UNITS>
nM

> <Molecular_Weight>
562.58877

$$$$

  SciTegic11272012012D

 26 29  0  0  0  0            999 V2000
    2.8575   -1.6584    0.0000 O   0  0
    2.1403   -2.0672    0.0000 C   0  0
    2.1375   -2.8922    0.0000 C   0  0
    1.4216   -3.3022    0.0000 C   0  0
    0.7086   -2.8872    0.0000 C   0  0
    0.7114   -2.0622    0.0000 C   0  0
    1.4273   -1.6521    0.0000 C   0  0
    1.4285   -0.8267    0.0000 O   0  0
    0.7144   -0.4125    0.0000 C   0  0
    0.7144    0.4125    0.0000 C   0  0
    0.0000    0.8250    0.0000 C   0  0
   -0.7144    0.4125    0.0000 C   0  0
   -1.4290    0.8250    0.0000 C   0  0
   -2.1434    0.4125    0.0000 C   0  0
   -2.8591    0.8237    0.0000 N   0  0
   -3.5734    0.4100    0.0000 C   0  0
   -3.5722   -0.2500    0.0000 O   0  0
   -4.2891    0.8213    0.0000 C   0  0
   -5.0706    0.7961    0.0000 C   0  0
   -4.6581    1.5106    0.0000 C   0  0
   -2.1434   -0.4125    0.0000 N   0  0
   -1.4290   -0.8250    0.0000 C   0  0
   -0.7144   -0.4125    0.0000 C   0  0
    0.0000   -0.8250    0.0000 C   0  0
   -2.8601    1.3737    0.0000 H   0  0
    3.3324   -1.9357    0.0000 H   0  0
  1  2  1  0
  1 26  1  0
  2  3  1  0
  3  4  1  0
  4  5  1  0
  5  6  1  0
  6  7  1  0
  7  2  1  0
  7  8  1  0
  8  9  1  0
  9 10  2  0
 10 11  1  0
 11 12  2  0
 12 13  1  0
 13 14  2  0
 14 15  1  0
 14 21  1  0
 15 16  1  0
 15 25  1  0
 16 17  2  0
 16 18  1  0
 18 19  1  0
 19 20  1  0
 20 18  1  0
 21 22  2  0
 22 23  1  0
 23 12  1  0
 23 24  2  0
 24  9  1  0
M  END
> <CMPD_CHEMBLID>
CHEMBL3689571

> <STANDARD_TYPE>
Ki

> <RELATION>
=

> <STANDARD_VALUE>
9

> <STANDARD_UNITS>
nM

> <Molecular_Weight>
326.38958

$$$$

  SciTegic11272012012D

 40 44  0  0  0  0            999 V2000
   -8.0925    0.7225    0.0000 C   0  0
   -7.8909    0.0941    0.0000 N   0  0
   -8.4451   -0.5169    0.0000 C   0  0
   -8.1931   -1.3025    0.0000 C   0  0
   -7.3868   -1.4771    0.0000 N   0  0
   -7.1330   -2.2625    0.0000 C   0  0
   -6.3260   -2.4360    0.0000 C   0  0
   -5.7738   -1.8230    0.0000 C   0  0
   -4.9669   -1.9947    0.0000 C   0  0
   -4.7120   -2.7794    0.0000 C   0  0
   -5.2643   -3.3924    0.0000 C   0  0
   -6.0712   -3.2207    0.0000 C   0  0
   -6.6237   -3.8340    0.0000 C   0  0
   -6.4203   -4.4618    0.0000 F   0  0
   -7.2692   -3.6964    0.0000 F   0  0
   -7.0656   -4.3241    0.0000 F   0  0
   -3.9050   -2.9528    0.0000 C   0  0
   -3.4624   -2.4632    0.0000 O   0  0
   -3.6512   -3.7383    0.0000 N   0  0
   -2.8442   -3.9117    0.0000 C   0  0
   -2.5894   -4.6964    0.0000 C   0  0
   -1.7825   -4.8681    0.0000 C   0  0
   -1.2303   -4.2551    0.0000 C   0  0
   -0.5848   -4.3925    0.0000 C   0  0
   -1.4851   -3.4705    0.0000 C   0  0
   -2.2921   -3.2988    0.0000 C   0  0
   -0.9327   -2.8571    0.0000 C   0  0
   -0.3802   -2.2438    0.0000 C   0  0
    0.1713   -1.6316    0.0000 C   0  0
    0.9918   -1.7178    0.0000 C   0  0
    1.3273   -0.9641    0.0000 N   0  0
    0.7144   -0.4125    0.0000 C   0  0
    0.7144    0.4125    0.0000 C   0  0
    0.0000    0.8250    0.0000 C   0  0
   -0.7144    0.4125    0.0000 C   0  0
   -0.7144   -0.4125    0.0000 C   0  0
    0.0000   -0.8250    0.0000 N   0  0
   -6.8325   -0.8660    0.0000 C   0  0
   -7.0846   -0.0804    0.0000 C   0  0
   -4.0200   -4.1463    0.0000 H   0  0
  1  2  1  0
  2  3  1  0
  3  4  1  0
  4  5  1  0
  5  6  1  0
  5 38  1  0
  6  7  1  0
  7  8  2  0
  8  9  1  0
  9 10  2  0
 10 11  1  0
 10 17  1  0
 11 12  2  0
 12  7  1  0
 12 13  1  0
 13 14  1  0
 13 15  1  0
 13 16  1  0
 17 18  2  0
 17 19  1  0
 19 20  1  0
 19 40  1  0
 20 21  2  0
 21 22  1  0
 22 23  2  0
 23 24  1  0
 23 25  1  0
 25 26  2  0
 25 27  1  0
 26 20  1  0
 27 28  3  0
 28 29  1  0
 29 30  2  0
 30 31  1  0
 31 32  2  0
 32 33  1  0
 33 34  2  0
 34 35  1  0
 35 36  2  0
 36 37  1  0
 37 29  1  0
 37 32  1  0
 38 39  1  0
 39  2  1  0
M  END
> <CMPD_CHEMBLID>
CHEMBL1171281

> <STANDARD_TYPE>
IC50

> <RELATION>
=

> <STANDARD_VALUE>
9

> <STANDARD_UNITS>
nM

> <Molecular_Weight>
531.57143

$$$$

  SciTegic11272012012D

 42 46  0  0  0  0            999 V2000
   -0.9689    2.8655    0.0000 C   0  0
   -0.7042    3.4701    0.0000 C   0  0
   -1.0957    4.0015    0.0000 C   0  0
   -1.3602    3.3969    0.0000 C   0  0
    0.1147    3.5619    0.0000 C   0  0
    0.6710    2.9527    0.0000 C   0  0
    1.4119    3.2994    0.0000 C   0  0
    2.1288    2.8901    0.0000 N   0  0
    2.1333    2.0647    0.0000 C   0  0
    1.5635    1.7317    0.0000 O   0  0
    2.8502    1.6555    0.0000 N   0  0
    2.8547    0.8300    0.0000 C   0  0
    3.5707    0.4200    0.0000 C   0  0
    3.5735   -0.4050    0.0000 C   0  0
    2.8604   -0.8200    0.0000 C   0  0
    2.1445   -0.4100    0.0000 C   0  0
    1.4302   -0.8237    0.0000 N   0  0
    0.7145   -0.4125    0.0000 C   0  0
    0.7145    0.4125    0.0000 N   0  0
    0.0000    0.8250    0.0000 C   0  0
   -0.7145    0.4125    0.0000 N   0  0
   -0.7145   -0.4125    0.0000 C   0  0
   -1.4290   -0.8250    0.0000 C   0  0
   -1.4290   -1.6500    0.0000 C   0  0
   -0.7145   -2.0625    0.0000 C   0  0
    0.0000   -1.6500    0.0000 C   0  0
    0.0000   -0.8250    0.0000 C   0  0
    2.1417    0.4150    0.0000 C   0  0
    1.3304    4.1133    0.0000 N   0  0
    0.5222    4.2792    0.0000 N   0  0
    1.9432    4.6662    0.0000 C   0  0
    2.7429    4.4754    0.0000 C   0  0
    3.3096    5.0749    0.0000 C   0  0
    3.0738    5.8655    0.0000 C   0  0
    2.2712    6.0565    0.0000 C   0  0
    1.7045    5.4570    0.0000 C   0  0
    2.0336    6.8471    0.0000 N   0  3
    1.3913    6.9990    0.0000 O   0  0
    2.4861    7.3275    0.0000 O   0  5
    1.4312   -1.3738    0.0000 H   0  0
    3.3251    1.9330    0.0000 H   0  0
    2.6036    3.1676    0.0000 H   0  0
  1  2  1  0
  2  3  1  0
  2  4  1  0
  2  5  1  0
  5  6  1  0
  6  7  2  0
  7  8  1  0
  7 29  1  0
  8  9  1  0
  8 42  1  0
  9 10  2  0
  9 11  1  0
 11 12  1  0
 11 41  1  0
 12 13  2  0
 13 14  1  0
 14 15  2  0
 15 16  1  0
 16 17  1  0
 16 28  2  0
 17 18  1  0
 17 40  1  0
 18 19  2  0
 19 20  1  0
 20 21  2  0
 21 22  1  0
 22 23  2  0
 23 24  1  0
 24 25  2  0
 25 26  1  0
 26 27  2  0
 27 18  1  0
 27 22  1  0
 28 12  1  0
 29 30  1  0
 29 31  1  0
 30  5  2  0
 31 32  2  0
 32 33  1  0
 33 34  2  0
 34 35  1  0
 35 36  2  0
 35 37  1  0
 36 31  1  0
 37 38  2  0
 37 39  1  0
M  CHG  2  37   1  39  -1
M  END
> <CMPD_CHEMBLID>
CHEMBL2403874

> <STANDARD_TYPE>
IC50

> <RELATION>
=

> <STANDARD_VALUE>
9

> <STANDARD_UNITS>
nM

> <Molecular_Weight>
522.55784

$$$$

  SciTegic11272012012D

 27 31  0  0  0  0            999 V2000
    4.1174   -0.4151    0.0000 C   0  0
    3.4721   -0.2769    0.0000 N   0  0
    3.1377    0.4774    0.0000 N   0  0
    2.3171    0.3924    0.0000 C   0  0
    2.1445   -0.4139    0.0000 C   0  0
    1.4293   -0.8252    0.0000 C   0  0
    1.4281   -1.6502    0.0000 C   0  0
    2.1419   -2.0639    0.0000 C   0  0
    2.8570   -1.6525    0.0000 C   0  0
    2.8583   -0.8275    0.0000 C   0  0
    0.7145   -0.4125    0.0000 C   0  0
    0.7145    0.4125    0.0000 C   0  0
    0.0000    0.8250    0.0000 C   0  0
   -0.7145    0.4125    0.0000 C   0  0
   -1.4290    0.8250    0.0000 C   0  0
   -2.1434    0.4125    0.0000 C   0  0
   -2.8592    0.8237    0.0000 N   0  0
   -3.5735    0.4100    0.0000 C   0  0
   -3.5723   -0.2500    0.0000 O   0  0
   -4.2892    0.8213    0.0000 C   0  0
   -5.0706    0.7961    0.0000 C   0  0
   -4.6581    1.5106    0.0000 C   0  0
   -2.1434   -0.4125    0.0000 N   0  0
   -1.4290   -0.8250    0.0000 C   0  0
   -0.7145   -0.4125    0.0000 C   0  0
    0.0000   -0.8250    0.0000 C   0  0
   -2.8601    1.3738    0.0000 H   0  0
  1  2  1  0
  2  3  1  0
  3  4  2  0
  4  5  1  0
  5  6  2  0
  6  7  1  0
  6 11  1  0
  7  8  2  0
  8  9  1  0
  9 10  2  0
 10  2  1  0
 10  5  1  0
 11 12  2  0
 12 13  1  0
 13 14  2  0
 14 15  1  0
 15 16  2  0
 16 17  1  0
 16 23  1  0
 17 18  1  0
 17 27  1  0
 18 19  2  0
 18 20  1  0
 20 21  1  0
 21 22  1  0
 22 20  1  0
 23 24  2  0
 24 25  1  0
 25 14  1  0
 25 26  2  0
 26 11  1  0
M  END
> <CMPD_CHEMBLID>
CHEMBL3685149

> <STANDARD_TYPE>
Ki

> <RELATION>
=

> <STANDARD_VALUE>
9

> <STANDARD_UNITS>
nM

> <Molecular_Weight>
342.39382

$$$$

  SciTegic11272012012D

 40 44  0  0  0  0            999 V2000
   -8.0925    0.7225    0.0000 C   0  0
   -7.8909    0.0941    0.0000 N   0  0
   -8.4451   -0.5169    0.0000 C   0  0
   -8.1931   -1.3025    0.0000 C   0  0
   -7.3868   -1.4771    0.0000 N   0  0
   -7.1330   -2.2625    0.0000 C   0  0
   -6.3260   -2.4360    0.0000 C   0  0
   -5.7738   -1.8230    0.0000 C   0  0
   -4.9669   -1.9947    0.0000 C   0  0
   -4.7120   -2.7794    0.0000 C   0  0
   -3.9050   -2.9528    0.0000 N   0  0
   -3.6512   -3.7383    0.0000 C   0  0
   -4.0938   -4.2279    0.0000 O   0  0
   -2.8442   -3.9117    0.0000 C   0  0
   -2.5894   -4.6964    0.0000 C   0  0
   -1.7825   -4.8681    0.0000 C   0  0
   -1.2303   -4.2551    0.0000 C   0  0
   -0.5848   -4.3925    0.0000 C   0  0
   -1.4851   -3.4705    0.0000 C   0  0
   -2.2921   -3.2988    0.0000 C   0  0
   -0.9327   -2.8571    0.0000 C   0  0
   -0.3802   -2.2438    0.0000 C   0  0
    0.1713   -1.6316    0.0000 C   0  0
    0.9918   -1.7178    0.0000 C   0  0
    1.3273   -0.9641    0.0000 N   0  0
    0.7144   -0.4125    0.0000 C   0  0
    0.7144    0.4125    0.0000 C   0  0
    0.0000    0.8250    0.0000 C   0  0
   -0.7144    0.4125    0.0000 C   0  0
   -0.7144   -0.4125    0.0000 C   0  0
    0.0000   -0.8250    0.0000 N   0  0
   -5.2643   -3.3924    0.0000 C   0  0
   -6.0712   -3.2207    0.0000 C   0  0
   -6.6237   -3.8340    0.0000 C   0  0
   -6.4203   -4.4618    0.0000 F   0  0
   -7.2692   -3.6964    0.0000 F   0  0
   -7.0656   -4.3241    0.0000 F   0  0
   -6.8325   -0.8660    0.0000 C   0  0
   -7.0846   -0.0804    0.0000 C   0  0
   -3.5362   -2.5448    0.0000 H   0  0
  1  2  1  0
  2  3  1  0
  3  4  1  0
  4  5  1  0
  5  6  1  0
  5 38  1  0
  6  7  1  0
  7  8  2  0
  8  9  1  0
  9 10  2  0
 10 11  1  0
 10 32  1  0
 11 12  1  0
 11 40  1  0
 12 13  2  0
 12 14  1  0
 14 15  2  0
 15 16  1  0
 16 17  2  0
 17 18  1  0
 17 19  1  0
 19 20  2  0
 19 21  1  0
 20 14  1  0
 21 22  3  0
 22 23  1  0
 23 24  2  0
 24 25  1  0
 25 26  2  0
 26 27  1  0
 27 28  2  0
 28 29  1  0
 29 30  2  0
 30 31  1  0
 31 23  1  0
 31 26  1  0
 32 33  2  0
 33  7  1  0
 33 34  1  0
 34 35  1  0
 34 36  1  0
 34 37  1  0
 38 39  1  0
 39  2  1  0
M  END
> <CMPD_CHEMBLID>
CHEMBL1171086

> <STANDARD_TYPE>
IC50

> <RELATION>
=

> <STANDARD_VALUE>
9

> <STANDARD_UNITS>
nM

> <Molecular_Weight>
531.57143

$$$$

  SciTegic11272012012D

 34 38  0  0  0  0            999 V2000
    2.1455    0.2461    0.0000 C   0  0
    2.1445   -0.4139    0.0000 C   0  0
    2.8583   -0.8275    0.0000 N   0  0
    2.8570   -1.6525    0.0000 C   0  0
    2.1419   -2.0639    0.0000 C   0  0
    2.1388   -2.8893    0.0000 N   0  0
    1.4227   -3.2999    0.0000 C   0  0
    0.8523   -2.9680    0.0000 O   0  0
    1.4198   -4.1253    0.0000 C   0  0
    0.7046   -4.5367    0.0000 C   0  0
    0.7033   -5.3617    0.0000 C   0  0
    1.4171   -5.7754    0.0000 O   0  0
    2.1322   -5.3640    0.0000 C   0  0
    2.1336   -4.5390    0.0000 C   0  0
    1.4281   -1.6502    0.0000 C   0  0
    1.4293   -0.8252    0.0000 C   0  0
    0.7144   -0.4125    0.0000 C   0  0
    0.7144    0.4125    0.0000 C   0  0
    0.0000    0.8250    0.0000 C   0  0
   -0.7144    0.4125    0.0000 C   0  0
   -1.4290    0.8250    0.0000 C   0  0
   -2.1434    0.4125    0.0000 C   0  0
   -2.8591    0.8237    0.0000 N   0  0
   -3.5734    0.4100    0.0000 C   0  0
   -3.5722   -0.2500    0.0000 O   0  0
   -4.2891    0.8213    0.0000 C   0  0
   -5.0706    0.7961    0.0000 C   0  0
   -4.6581    1.5106    0.0000 C   0  0
   -2.1434   -0.4125    0.0000 N   0  0
   -1.4290   -0.8250    0.0000 C   0  0
   -0.7144   -0.4125    0.0000 C   0  0
    0.0000   -0.8250    0.0000 C   0  0
   -2.8601    1.3737    0.0000 H   0  0
    2.6143   -3.1659    0.0000 H   0  0
  1  2  1  0
  2  3  2  0
  3  4  1  0
  4  5  2  0
  5  6  1  0
  5 15  1  0
  6  7  1  0
  6 34  1  0
  7  8  2  0
  7  9  1  0
  9 10  1  0
 10 11  1  0
 11 12  1  0
 12 13  1  0
 13 14  1  0
 14  9  1  0
 15 16  2  0
 16  2  1  0
 16 17  1  0
 17 18  2  0
 18 19  1  0
 19 20  2  0
 20 21  1  0
 21 22  2  0
 22 23  1  0
 22 29  1  0
 23 24  1  0
 23 33  1  0
 24 25  2  0
 24 26  1  0
 26 27  1  0
 27 28  1  0
 28 26  1  0
 29 30  2  0
 30 31  1  0
 31 20  1  0
 31 32  2  0
 32 17  1  0
M  END
> <CMPD_CHEMBLID>
CHEMBL3689572

> <STANDARD_TYPE>
Ki

> <RELATION>
=

> <STANDARD_VALUE>
9

> <STANDARD_UNITS>
nM

> <Molecular_Weight>
430.49894

$$$$

  SciTegic11272012012D

 25 27  0  0  0  0            999 V2000
    2.1404   -2.7264    0.0000 C   0  0
    2.1413   -2.0663    0.0000 C   0  0
    2.7135   -1.7373    0.0000 C   0  0
    1.4273   -1.6521    0.0000 C   0  0
    0.8551   -1.9812    0.0000 O   0  0
    1.4285   -0.8267    0.0000 N   0  0
    0.7144   -0.4125    0.0000 C   0  0
    0.7144    0.4125    0.0000 C   0  0
    0.0000    0.8250    0.0000 C   0  0
    0.0000    1.6500    0.0000 C   0  0
   -0.7145    2.0625    0.0000 C   0  0
   -1.4290    1.6500    0.0000 C   0  0
   -1.4290    0.8250    0.0000 C   0  0
   -0.7144    0.4125    0.0000 C   0  0
   -0.7144   -0.4125    0.0000 C   0  0
    0.0000   -0.8250    0.0000 N   0  0
   -2.1438    2.0627    0.0000 C   0  0
   -2.8576    1.6491    0.0000 C   0  0
   -3.5728    2.0605    0.0000 C   0  0
   -4.1438    1.7295    0.0000 F   0  0
   -3.5741    2.8855    0.0000 C   0  0
   -2.8603    3.2991    0.0000 C   0  0
   -2.1452    2.8877    0.0000 C   0  0
   -1.5741    3.2187    0.0000 C   0  0
    1.9053   -0.5525    0.0000 H   0  0
  1  2  1  0
  2  3  1  0
  2  4  1  0
  4  5  2  0
  4  6  1  0
  6  7  1  0
  6 25  1  0
  7  8  2  0
  8  9  1  0
  9 10  2  0
 10 11  1  0
 11 12  2  0
 12 13  1  0
 12 17  1  0
 13 14  2  0
 14  9  1  0
 14 15  1  0
 15 16  2  0
 16  7  1  0
 17 18  2  0
 18 19  1  0
 19 20  1  0
 19 21  2  0
 21 22  1  0
 22 23  2  0
 23 17  1  0
 23 24  1  0
M  END
> <CMPD_CHEMBLID>
CHEMBL3685058

> <STANDARD_TYPE>
Ki

> <RELATION>
=

> <STANDARD_VALUE>
9

> <STANDARD_UNITS>
nM

> <Molecular_Weight>
322.37606

$$$$

  SciTegic11272012012D

 35 38  0  0  0  0            999 V2000
    1.2861   -0.7425    0.0000 C   0  0
    0.7145   -0.4125    0.0000 C   0  0
    0.7145    0.4125    0.0000 N   0  0
    0.0000    0.8250    0.0000 C   0  0
   -0.0017    1.6505    0.0000 N   0  0
   -0.7172    2.0622    0.0000 C   0  0
   -0.7959    2.8764    0.0000 N   0  0
   -1.6034    3.0451    0.0000 C   0  0
   -2.0134    2.3292    0.0000 C   0  0
   -1.4593    1.7180    0.0000 S   0  0
   -2.8325    2.2385    0.0000 C   0  0
   -3.2232    2.7704    0.0000 O   0  0
   -3.1645    1.4828    0.0000 N   0  0
   -3.9850    1.3919    0.0000 C   0  0
   -4.3179    0.6371    0.0000 C   0  0
   -3.9281    0.1044    0.0000 C   0  0
   -5.1381    0.5479    0.0000 C   0  0
   -5.6254    1.2137    0.0000 C   0  0
   -5.2924    1.9685    0.0000 C   0  0
   -4.4723    2.0577    0.0000 C   0  0
   -4.2060    2.6615    0.0000 Cl  0  0
   -0.7145    0.4125    0.0000 C   0  0
   -0.7145   -0.4125    0.0000 C   0  0
    0.0000   -0.8250    0.0000 N   0  0
   -1.4293   -0.8252    0.0000 N   0  0
   -2.1445   -0.4139    0.0000 C   0  0
   -2.8583   -0.8275    0.0000 C   0  0
   -2.8570   -1.6526    0.0000 N   0  0
   -3.5704   -2.0679    0.0000 C   0  0
   -3.5679   -2.8933    0.0000 C   0  0
   -4.1383   -3.2254    0.0000 F   0  0
   -2.1419   -2.0639    0.0000 C   0  0
   -1.4280   -1.6502    0.0000 C   0  0
   -2.8389    1.0395    0.0000 H   0  0
    0.4741    1.9263    0.0000 H   0  0
  1  2  1  0
  2  3  2  0
  3  4  1  0
  4  5  1  0
  4 22  2  0
  5  6  1  0
  5 35  1  0
  6  7  2  0
  7  8  1  0
  8  9  2  0
  9 10  1  0
  9 11  1  0
 10  6  1  0
 11 12  2  0
 11 13  1  0
 13 14  1  0
 13 34  1  0
 14 15  2  0
 15 16  1  0
 15 17  1  0
 17 18  2  0
 18 19  1  0
 19 20  2  0
 20 14  1  0
 20 21  1  0
 22 23  1  0
 23 24  2  0
 23 25  1  0
 24  2  1  0
 25 26  1  0
 26 27  1  0
 27 28  1  0
 28 29  1  0
 28 32  1  0
 29 30  1  0
 30 31  1  0
 32 33  1  0
 33 25  1  0
M  END
> <CMPD_CHEMBLID>
CHEMBL240158

> <STANDARD_TYPE>
IC50

> <RELATION>
=

> <STANDARD_VALUE>
9.1

> <STANDARD_UNITS>
nM

> <Molecular_Weight>
489.9966

$$$$

  SciTegic11272012012D

 40 44  0  0  0  0            999 V2000
   -8.0925    0.7225    0.0000 C   0  0
   -7.8909    0.0941    0.0000 N   0  0
   -8.4451   -0.5169    0.0000 C   0  0
   -8.1931   -1.3025    0.0000 C   0  0
   -7.3868   -1.4771    0.0000 C   0  0
   -6.8325   -0.8660    0.0000 C   0  0
   -7.0846   -0.0804    0.0000 C   0  0
   -7.1330   -2.2625    0.0000 O   0  0
   -6.3260   -2.4360    0.0000 C   0  0
   -5.7738   -1.8230    0.0000 C   0  0
   -4.9669   -1.9947    0.0000 C   0  0
   -4.7120   -2.7794    0.0000 C   0  0
   -3.9050   -2.9528    0.0000 N   0  0
   -3.6512   -3.7383    0.0000 C   0  0
   -4.0938   -4.2279    0.0000 O   0  0
   -2.8442   -3.9117    0.0000 C   0  0
   -2.5894   -4.6964    0.0000 C   0  0
   -1.7825   -4.8681    0.0000 C   0  0
   -1.2303   -4.2551    0.0000 C   0  0
   -0.5848   -4.3925    0.0000 C   0  0
   -1.4851   -3.4705    0.0000 C   0  0
   -2.2921   -3.2988    0.0000 C   0  0
   -0.9327   -2.8571    0.0000 C   0  0
   -0.3802   -2.2438    0.0000 C   0  0
    0.1713   -1.6316    0.0000 C   0  0
    0.9918   -1.7178    0.0000 C   0  0
    1.3273   -0.9641    0.0000 N   0  0
    0.7144   -0.4125    0.0000 C   0  0
    0.7144    0.4125    0.0000 C   0  0
    0.0000    0.8250    0.0000 C   0  0
   -0.7144    0.4125    0.0000 C   0  0
   -0.7144   -0.4125    0.0000 C   0  0
    0.0000   -0.8250    0.0000 N   0  0
   -5.2643   -3.3924    0.0000 C   0  0
   -6.0712   -3.2207    0.0000 C   0  0
   -6.6237   -3.8340    0.0000 C   0  0
   -6.4203   -4.4618    0.0000 F   0  0
   -7.2692   -3.6964    0.0000 F   0  0
   -7.0656   -4.3241    0.0000 F   0  0
   -3.5362   -2.5448    0.0000 H   0  0
  1  2  1  0
  2  3  1  0
  3  4  1  0
  4  5  1  0
  5  6  1  0
  5  8  1  0
  6  7  1  0
  7  2  1  0
  8  9  1  0
  9 10  2  0
 10 11  1  0
 11 12  2  0
 12 13  1  0
 12 34  1  0
 13 14  1  0
 13 40  1  0
 14 15  2  0
 14 16  1  0
 16 17  2  0
 17 18  1  0
 18 19  2  0
 19 20  1  0
 19 21  1  0
 21 22  2  0
 21 23  1  0
 22 16  1  0
 23 24  3  0
 24 25  1  0
 25 26  2  0
 26 27  1  0
 27 28  2  0
 28 29  1  0
 29 30  2  0
 30 31  1  0
 31 32  2  0
 32 33  1  0
 33 25  1  0
 33 28  1  0
 34 35  2  0
 35  9  1  0
 35 36  1  0
 36 37  1  0
 36 38  1  0
 36 39  1  0
M  END
> <CMPD_CHEMBLID>
CHEMBL1169881

> <STANDARD_TYPE>
IC50

> <RELATION>
=

> <STANDARD_VALUE>
9.1

> <STANDARD_UNITS>
nM

> <Molecular_Weight>
532.55619

$$$$

  SciTegic11272012012D

 37 41  0  0  0  0            999 V2000
   -0.2704   -2.1220    0.0000 C   0  0
    0.1713   -1.6316    0.0000 N   0  0
    0.9918   -1.7178    0.0000 C   0  0
    1.3273   -0.9642    0.0000 C   0  0
    2.1337   -0.7943    0.0000 C   0  0
    2.6853   -1.4085    0.0000 C   0  0
    2.5031   -2.2059    0.0000 O   0  0
    3.2159   -2.6204    0.0000 C   0  0
    3.3848   -3.4280    0.0000 C   0  0
    4.1686   -3.6855    0.0000 C   0  0
    4.7835   -3.1355    0.0000 C   0  0
    4.6146   -2.3279    0.0000 C   0  0
    5.2310   -1.7788    0.0000 O   0  0
    3.8308   -2.0704    0.0000 C   0  0
    3.4980   -1.3159    0.0000 C   0  0
    3.8266   -0.7436    0.0000 O   0  0
    0.7145   -0.4125    0.0000 C   0  0
    0.7145    0.4125    0.0000 C   0  0
    0.0000    0.8250    0.0000 C   0  0
   -0.7145    0.4125    0.0000 C   0  0
   -0.7145   -0.4125    0.0000 N   0  0
    0.0000   -0.8250    0.0000 C   0  0
    1.4293    0.8252    0.0000 C   0  0
    2.1445    0.4139    0.0000 C   0  0
    2.8583    0.8275    0.0000 C   0  0
    2.8570    1.6526    0.0000 C   0  0
    2.1419    2.0639    0.0000 C   0  0
    1.4280    1.6502    0.0000 C   0  0
    3.5704    2.0679    0.0000 C   0  0
    4.1430    1.7398    0.0000 O   0  0
    3.5679    2.8934    0.0000 N   0  0
    4.2813    3.3087    0.0000 C   0  0
    4.2788    4.1341    0.0000 C   0  0
    4.9921    4.5495    0.0000 O   0  0
    4.9904    5.0995    0.0000 H   0  0
    3.0907    3.1668    0.0000 H   0  0
    5.7533   -1.9513    0.0000 H   0  0
  1  2  1  0
  2  3  1  0
  3  4  2  0
  4  5  1  0
  4 17  1  0
  5  6  2  0
  6  7  1  0
  7  8  1  0
  8  9  2  0
  9 10  1  0
 10 11  2  0
 11 12  1  0
 12 13  1  0
 12 14  2  0
 13 37  1  0
 14  8  1  0
 14 15  1  0
 15  6  1  0
 15 16  2  0
 17 18  2  0
 18 19  1  0
 18 23  1  0
 19 20  2  0
 20 21  1  0
 21 22  2  0
 22  2  1  0
 22 17  1  0
 23 24  2  0
 24 25  1  0
 25 26  2  0
 26 27  1  0
 26 29  1  0
 27 28  2  0
 28 23  1  0
 29 30  2  0
 29 31  1  0
 31 32  1  0
 31 36  1  0
 32 33  1  0
 33 34  1  0
 34 35  1  0
M  END
> <CMPD_CHEMBLID>
CHEMBL1092754

> <STANDARD_TYPE>
IC50

> <RELATION>
=

> <STANDARD_VALUE>
9.7

> <STANDARD_UNITS>
nM

> <Molecular_Weight>
455.46204

$$$$

  SciTegic11272012012D

 29 32  0  0  0  0            999 V2000
    4.1383   -3.2254    0.0000 C   0  0
    3.5679   -2.8933    0.0000 N   0  0
    3.5704   -2.0679    0.0000 C   0  0
    4.1431   -1.7398    0.0000 O   0  0
    2.8570   -1.6525    0.0000 C   0  0
    2.8583   -0.8275    0.0000 C   0  0
    2.1445   -0.4139    0.0000 C   0  0
    2.1456    0.2461    0.0000 C   0  0
    1.4293   -0.8252    0.0000 C   0  0
    1.4281   -1.6502    0.0000 C   0  0
    2.1419   -2.0639    0.0000 N   0  0
    0.7145   -0.4125    0.0000 C   0  0
    0.7145    0.4125    0.0000 C   0  0
    0.0000    0.8250    0.0000 C   0  0
   -0.7145    0.4125    0.0000 C   0  0
   -1.4290    0.8250    0.0000 C   0  0
   -2.1434    0.4125    0.0000 C   0  0
   -2.8592    0.8237    0.0000 N   0  0
   -3.5735    0.4100    0.0000 C   0  0
   -3.5723   -0.2500    0.0000 O   0  0
   -4.2892    0.8213    0.0000 C   0  0
   -5.0707    0.7961    0.0000 C   0  0
   -4.6581    1.5106    0.0000 C   0  0
   -2.1434   -0.4125    0.0000 N   0  0
   -1.4290   -0.8250    0.0000 C   0  0
   -0.7145   -0.4125    0.0000 C   0  0
    0.0000   -0.8250    0.0000 C   0  0
   -2.8602    1.3738    0.0000 H   0  0
    3.0907   -3.1667    0.0000 H   0  0
  1  2  1  0
  2  3  1  0
  2 29  1  0
  3  4  2  0
  3  5  1  0
  5  6  2  0
  6  7  1  0
  7  8  1  0
  7  9  2  0
  9 10  1  0
  9 12  1  0
 10 11  2  0
 11  5  1  0
 12 13  2  0
 13 14  1  0
 14 15  2  0
 15 16  1  0
 16 17  2  0
 17 18  1  0
 17 24  1  0
 18 19  1  0
 18 28  1  0
 19 20  2  0
 19 21  1  0
 21 22  1  0
 22 23  1  0
 23 21  1  0
 24 25  2  0
 25 26  1  0
 26 15  1  0
 26 27  2  0
 27 12  1  0
M  END
> <CMPD_CHEMBLID>
CHEMBL3689545

> <STANDARD_TYPE>
Ki

> <RELATION>
=

> <STANDARD_VALUE>
10

> <STANDARD_UNITS>
nM

> <Molecular_Weight>
360.4091

$$$$

  SciTegic11272012012D

 29 32  0  0  0  0            999 V2000
    2.7167   -0.7388    0.0000 C   0  0
    2.1444   -0.4100    0.0000 N   0  0
    2.1433    0.2500    0.0000 C   0  0
    1.4302   -0.8237    0.0000 C   0  0
    0.7144   -0.4125    0.0000 C   0  0
    0.7144    0.4125    0.0000 N   0  0
    0.0000    0.8250    0.0000 C   0  0
   -0.7144    0.4125    0.0000 C   0  0
   -0.7144   -0.4125    0.0000 C   0  0
   -1.4290   -0.8250    0.0000 C   0  0
   -1.4290   -1.6500    0.0000 N   0  0
   -0.7144   -2.0625    0.0000 C   0  0
   -0.7127   -2.8879    0.0000 N   0  0
    0.0027   -3.2997    0.0000 C   0  0
    0.5737   -2.9687    0.0000 O   0  0
    0.0044   -4.1251    0.0000 C   0  0
    0.4168   -4.7893    0.0000 C   0  0
   -0.4082   -4.7893    0.0000 C   0  0
    0.0000   -1.6500    0.0000 C   0  0
    0.0000   -0.8250    0.0000 C   0  0
    0.0000    1.6504    0.0000 C   0  0
   -0.7151    2.0618    0.0000 C   0  0
   -0.7164    2.8868    0.0000 C   0  0
   -1.2885    3.2160    0.0000 F   0  0
   -0.0026    3.3005    0.0000 C   0  0
    0.7125    2.8891    0.0000 C   0  0
    0.7138    2.0641    0.0000 C   0  0
    1.2859    1.7350    0.0000 C   0  0
   -1.1886   -3.1638    0.0000 H   0  0
  1  2  1  0
  2  3  1  0
  2  4  1  0
  4  5  1  0
  5  6  2  0
  6  7  1  0
  7  8  2  0
  7 21  1  0
  8  9  1  0
  9 10  2  0
 10 11  1  0
 11 12  2  0
 12 13  1  0
 12 19  1  0
 13 14  1  0
 13 29  1  0
 14 15  2  0
 14 16  1  0
 16 17  1  0
 17 18  1  0
 18 16  1  0
 19 20  2  0
 20  5  1  0
 20  9  1  0
 21 22  2  0
 22 23  1  0
 23 24  1  0
 23 25  2  0
 25 26  1  0
 26 27  2  0
 27 21  1  0
 27 28  1  0
M  END
> <CMPD_CHEMBLID>
CHEMBL3689672

> <STANDARD_TYPE>
Ki

> <RELATION>
=

> <STANDARD_VALUE>
10

> <STANDARD_UNITS>
nM

> <Molecular_Weight>
378.44262

$$$$

  SciTegic11272012012D

 40 46  0  0  0  0            999 V2000
    1.4273   -1.6521    0.0000 C   0  0
    1.4285   -0.8267    0.0000 N   0  0
    0.7145   -0.4125    0.0000 C   0  0
    0.7145    0.4125    0.0000 C   0  0
    0.0000    0.8250    0.0000 C   0  0
   -0.7145    0.4125    0.0000 C   0  0
   -1.4986    0.6674    0.0000 N   0  0
   -1.9836    0.0000    0.0000 N   0  0
   -1.4986   -0.6674    0.0000 C   0  0
   -1.7536   -1.4525    0.0000 C   0  0
   -1.2128   -2.0668    0.0000 N   0  0
   -1.6438   -2.7698    0.0000 C   0  0
   -1.4096   -3.5609    0.0000 C   0  0
   -1.9776   -4.1592    0.0000 C   0  0
   -2.7798   -3.9665    0.0000 C   0  0
   -3.0140   -3.1755    0.0000 C   0  0
   -2.4460   -2.5771    0.0000 C   0  0
   -2.5108   -1.7551    0.0000 N   0  0
   -1.7432   -4.9507    0.0000 N   0  0
   -0.9413   -5.1447    0.0000 C   0  0
   -0.7084   -5.9361    0.0000 C   0  0
   -1.2773   -6.5336    0.0000 C   0  0
   -2.0792   -6.3396    0.0000 C   0  0
   -2.3121   -5.5482    0.0000 C   0  0
   -1.0442   -7.3254    0.0000 N   0  0
   -0.2427   -7.5207    0.0000 C   0  0
   -0.0109   -8.3125    0.0000 C   0  0
   -0.5808   -8.9091    0.0000 C   0  0
   -1.3824   -8.7138    0.0000 C   0  0
   -1.6141   -7.9220    0.0000 C   0  0
   -0.7145   -0.4125    0.0000 C   0  0
    0.0000   -0.8250    0.0000 C   0  0
    2.1413   -2.0664    0.0000 C   0  0
    2.2172   -2.8808    0.0000 N   0  0
    3.0241   -3.0523    0.0000 C   0  0
    3.4366   -2.3379    0.0000 C   0  0
    2.8846   -1.7247    0.0000 S   0  0
   -2.9779   -1.4648    0.0000 H   0  0
   -1.6685    1.1905    0.0000 H   0  0
    1.9053   -0.5525    0.0000 H   0  0
  1  2  1  0
  1 33  1  0
  2  3  1  0
  2 40  1  0
  3  4  2  0
  4  5  1  0
  5  6  2  0
  6  7  1  0
  7  8  1  0
  7 39  1  0
  8  9  2  0
  9 10  1  0
  9 31  1  0
 10 11  2  0
 11 12  1  0
 12 13  2  0
 13 14  1  0
 14 15  2  0
 14 19  1  0
 15 16  1  0
 16 17  2  0
 17 12  1  0
 17 18  1  0
 18 10  1  0
 18 38  1  0
 19 20  1  0
 20 21  1  0
 21 22  1  0
 22 23  1  0
 22 25  1  0
 23 24  1  0
 24 19  1  0
 25 26  1  0
 26 27  1  0
 27 28  1  0
 28 29  1  0
 29 30  1  0
 30 25  1  0
 31  6  1  0
 31 32  2  0
 32  3  1  0
 33 34  2  0
 34 35  1  0
 35 36  2  0
 36 37  1  0
 37 33  1  0
M  END
> <CMPD_CHEMBLID>
CHEMBL376945

> <STANDARD_TYPE>
IC50

> <RELATION>
=

> <STANDARD_VALUE>
10

> <STANDARD_UNITS>
nM

> <Molecular_Weight>
512.67228

$$$$

  SciTegic11272012012D

 34 38  0  0  0  0            999 V2000
    2.1456    0.2461    0.0000 C   0  0
    2.1445   -0.4139    0.0000 C   0  0
    2.8583   -0.8275    0.0000 C   0  0
    2.8570   -1.6525    0.0000 C   0  0
    2.1419   -2.0639    0.0000 C   0  0
    2.1389   -2.8893    0.0000 N   0  0
    1.4227   -3.2999    0.0000 S   0  0
    0.8523   -2.9680    0.0000 O   0  0
    1.4248   -2.6399    0.0000 O   0  0
    1.4198   -4.1254    0.0000 C   0  0
    2.0855   -4.6007    0.0000 C   0  0
    1.8277   -5.3844    0.0000 C   0  0
    1.0027   -5.3813    0.0000 C   0  0
    0.7506   -4.5958    0.0000 C   0  0
    1.4281   -1.6502    0.0000 C   0  0
    1.4293   -0.8252    0.0000 C   0  0
    0.7145   -0.4125    0.0000 C   0  0
    0.7145    0.4125    0.0000 C   0  0
    0.0000    0.8250    0.0000 C   0  0
   -0.7145    0.4125    0.0000 C   0  0
   -1.4290    0.8250    0.0000 C   0  0
   -2.1434    0.4125    0.0000 C   0  0
   -2.8591    0.8237    0.0000 N   0  0
   -3.5734    0.4100    0.0000 C   0  0
   -3.5723   -0.2500    0.0000 O   0  0
   -4.2891    0.8213    0.0000 C   0  0
   -5.0706    0.7961    0.0000 C   0  0
   -4.6581    1.5106    0.0000 C   0  0
   -2.1434   -0.4125    0.0000 N   0  0
   -1.4290   -0.8250    0.0000 C   0  0
   -0.7145   -0.4125    0.0000 C   0  0
    0.0000   -0.8250    0.0000 C   0  0
   -2.8601    1.3737    0.0000 H   0  0
    2.6143   -3.1659    0.0000 H   0  0
  1  2  1  0
  2  3  2  0
  3  4  1  0
  4  5  2  0
  5  6  1  0
  5 15  1  0
  6  7  1  0
  6 34  1  0
  7  8  2  0
  7  9  2  0
  7 10  1  0
 10 11  1  0
 11 12  1  0
 12 13  1  0
 13 14  1  0
 14 10  1  0
 15 16  2  0
 16  2  1  0
 16 17  1  0
 17 18  2  0
 18 19  1  0
 19 20  2  0
 20 21  1  0
 21 22  2  0
 22 23  1  0
 22 29  1  0
 23 24  1  0
 23 33  1  0
 24 25  2  0
 24 26  1  0
 26 27  1  0
 27 28  1  0
 28 26  1  0
 29 30  2  0
 30 31  1  0
 31 20  1  0
 31 32  2  0
 32 17  1  0
M  END
> <CMPD_CHEMBLID>
CHEMBL3689599

> <STANDARD_TYPE>
Ki

> <RELATION>
=

> <STANDARD_VALUE>
10

> <STANDARD_UNITS>
nM

> <Molecular_Weight>
449.56518

$$$$

  SciTegic11272012012D

 25 28  0  0  0  0            999 V2000
    1.4053   -2.4306    0.0000 N   0  0
    0.9918   -1.7178    0.0000 C   0  0
    1.3273   -0.9642    0.0000 N   0  0
    0.7145   -0.4125    0.0000 C   0  0
    0.7145    0.4125    0.0000 C   0  0
    0.0000    0.8250    0.0000 C   0  0
   -0.7145    0.4125    0.0000 C   0  0
   -0.7145   -0.4125    0.0000 C   0  0
    0.0000   -0.8250    0.0000 C   0  0
    0.1713   -1.6316    0.0000 N   0  0
   -0.3810   -2.2450    0.0000 C   0  0
   -1.1958   -2.2133    0.0000 N   0  0
   -1.4714   -2.9909    0.0000 C   0  0
   -0.8170   -3.4934    0.0000 C   0  0
   -0.1370   -3.0263    0.0000 S   0  0
   -2.2629   -3.2252    0.0000 C   0  0
   -2.8999   -2.7051    0.0000 C   0  0
   -3.6711   -2.9980    0.0000 C   0  0
   -3.8030   -3.8125    0.0000 C   0  0
   -3.1636   -4.3339    0.0000 C   0  0
   -2.3924   -4.0409    0.0000 C   0  0
   -1.4294    0.8252    0.0000 C   0  0
   -2.0009    1.1552    0.0000 N   0  0
    1.9553   -2.4298    0.0000 H   0  0
    1.1311   -2.9075    0.0000 H   0  0
  1  2  1  0
  1 24  1  0
  1 25  1  0
  2  3  2  0
  3  4  1  0
  4  5  2  0
  5  6  1  0
  6  7  2  0
  7  8  1  0
  7 22  1  0
  8  9  2  0
  9  4  1  0
  9 10  1  0
 10  2  1  0
 10 11  1  0
 11 12  2  0
 12 13  1  0
 13 14  2  0
 13 16  1  0
 14 15  1  0
 15 11  1  0
 16 17  2  0
 17 18  1  0
 18 19  2  0
 19 20  1  0
 20 21  2  0
 21 16  1  0
 22 23  3  0
M  END
> <CMPD_CHEMBLID>
CHEMBL1996066

> <STANDARD_TYPE>
Ki

> <RELATION>
=

> <STANDARD_VALUE>
10

> <STANDARD_UNITS>
nM

> <Molecular_Weight>
317.36774

$$$$

  SciTegic11272012012D

 33 36  0  0  0  0            999 V2000
    2.5597   -1.8572    0.0000 O   0  0
    2.2307   -2.4294    0.0000 C   0  0
    2.6449   -3.1434    0.0000 N   0  0
    3.4704   -3.1422    0.0000 C   0  0
    3.8846   -3.8562    0.0000 C   0  0
    4.7100   -3.8550    0.0000 C   0  0
    5.1250   -4.5680    0.0000 C   0  0
    5.9500   -4.5651    0.0000 C   0  0
    6.3601   -3.8493    0.0000 C   0  0
    5.9451   -3.1362    0.0000 N   0  0
    5.1201   -3.1391    0.0000 C   0  0
    1.4053   -2.4305    0.0000 N   0  0
    0.9918   -1.7178    0.0000 C   0  0
    1.3273   -0.9641    0.0000 N   0  0
    0.7144   -0.4125    0.0000 C   0  0
    0.7144    0.4125    0.0000 C   0  0
    0.0000    0.8250    0.0000 C   0  0
   -0.7144    0.4125    0.0000 C   0  0
   -0.7144   -0.4125    0.0000 C   0  0
    0.0000   -0.8250    0.0000 C   0  0
    0.1713   -1.6316    0.0000 N   0  0
   -1.4302    0.8237    0.0000 C   0  0
   -1.4313    1.4837    0.0000 O   0  0
   -2.1444    0.4100    0.0000 C   0  0
   -2.8604    0.8200    0.0000 C   0  0
   -3.5734    0.4050    0.0000 C   0  0
   -3.5706   -0.4200    0.0000 C   0  0
   -2.8546   -0.8300    0.0000 C   0  0
   -2.1416   -0.4150    0.0000 C   0  0
   -0.1967   -2.0403    0.0000 H   0  0
    1.1311   -2.9074    0.0000 H   0  0
    6.2184   -2.6590    0.0000 H   0  0
    2.3708   -3.6202    0.0000 H   0  0
  1  2  2  0
  2  3  1  0
  2 12  1  0
  3  4  1  0
  3 33  1  0
  4  5  1  0
  5  6  1  0
  6  7  1  0
  7  8  1  0
  8  9  1  0
  9 10  1  0
 10 11  1  0
 10 32  1  0
 11  6  1  0
 12 13  1  0
 12 31  1  0
 13 14  2  0
 14 15  1  0
 15 16  2  0
 16 17  1  0
 17 18  2  0
 18 19  1  0
 18 22  1  0
 19 20  2  0
 20 15  1  0
 20 21  1  0
 21 13  1  0
 21 30  1  0
 22 23  2  0
 22 24  1  0
 24 25  2  0
 25 26  1  0
 26 27  2  0
 27 28  1  0
 28 29  2  0
 29 24  1  0
M  END
> <CMPD_CHEMBLID>
CHEMBL2059165

> <STANDARD_TYPE>
IC50

> <RELATION>
=

> <STANDARD_VALUE>
10

> <STANDARD_UNITS>
nM

> <Molecular_Weight>
391.4662

$$$$

  SciTegic11272012012D

 41 45  0  0  0  0            999 V2000
    1.4302   -0.8237    0.0000 N   0  0
    0.7144   -0.4125    0.0000 C   0  0
    0.7144    0.4125    0.0000 N   0  0
    0.0000    0.8250    0.0000 C   0  0
   -0.7144    0.4125    0.0000 C   0  0
   -1.4293    0.8252    0.0000 C   0  0
   -1.4306    1.6502    0.0000 C   0  0
   -2.1458    2.0616    0.0000 C   0  0
   -2.8596    1.6480    0.0000 N   0  0
   -2.8583    0.8230    0.0000 C   0  0
   -2.1432    0.4116    0.0000 C   0  0
   -0.7144   -0.4125    0.0000 C   0  0
   -1.3273   -0.9641    0.0000 S   0  0
   -0.9918   -1.7178    0.0000 C   0  0
   -0.1713   -1.6316    0.0000 C   0  0
    0.3811   -2.2449    0.0000 C   0  0
    0.1862   -3.0437    0.0000 C   0  0
    0.7828   -3.6135    0.0000 C   0  0
    1.5746   -3.3816    0.0000 C   0  0
    2.1728   -3.9505    0.0000 N   0  0
    2.9646   -3.7174    0.0000 C   0  0
    3.1195   -3.0758    0.0000 O   0  0
    3.5628   -4.2862    0.0000 N   0  0
    4.3546   -4.0530    0.0000 C   0  0
    4.5469   -3.2508    0.0000 C   0  0
    5.3379   -3.0162    0.0000 C   0  0
    5.9365   -3.5838    0.0000 C   0  0
    5.7442   -4.3861    0.0000 C   0  0
    4.9533   -4.6207    0.0000 C   0  0
    4.7994   -5.2625    0.0000 F   0  0
    5.5303   -2.2135    0.0000 C   0  0
    5.0517   -1.7590    0.0000 F   0  0
    6.1631   -2.0260    0.0000 F   0  0
    5.6845   -1.5717    0.0000 F   0  0
    1.7697   -2.5800    0.0000 C   0  0
    1.1730   -2.0103    0.0000 C   0  0
    0.0000   -0.8250    0.0000 C   0  0
    3.4336   -4.8208    0.0000 H   0  0
    2.0436   -4.4851    0.0000 H   0  0
    1.9061   -0.5481    0.0000 H   0  0
    1.4311   -1.3737    0.0000 H   0  0
  1  2  1  0
  1 40  1  0
  1 41  1  0
  2  3  2  0
  3  4  1  0
  4  5  2  0
  5  6  1  0
  5 12  1  0
  6  7  2  0
  7  8  1  0
  8  9  2  0
  9 10  1  0
 10 11  2  0
 11  6  1  0
 12 13  1  0
 13 14  1  0
 14 15  2  0
 15 16  1  0
 15 37  1  0
 16 17  2  0
 17 18  1  0
 18 19  2  0
 19 20  1  0
 19 35  1  0
 20 21  1  0
 20 39  1  0
 21 22  2  0
 21 23  1  0
 23 24  1  0
 23 38  1  0
 24 25  2  0
 25 26  1  0
 26 27  2  0
 26 31  1  0
 27 28  1  0
 28 29  2  0
 29 24  1  0
 29 30  1  0
 31 32  1  0
 31 33  1  0
 31 34  1  0
 35 36  2  0
 36 16  1  0
 37  2  1  0
 37 12  2  0
M  END
> <CMPD_CHEMBLID>
CHEMBL1970083

> <STANDARD_TYPE>
Ki

> <RELATION>
=

> <STANDARD_VALUE>
10

> <STANDARD_UNITS>
nM

> <Molecular_Weight>
523.50469

$$$$

  SciTegic11272012012D

 28 31  0  0  0  0            999 V2000
    2.8559   -0.9938    0.0000 F   0  0
    2.8559   -1.6538    0.0000 C   0  0
    3.5703   -2.0664    0.0000 C   0  0
    3.5703   -2.8914    0.0000 C   0  0
    2.8558   -3.3038    0.0000 C   0  0
    2.1414   -2.8913    0.0000 C   0  0
    1.5698   -3.2213    0.0000 F   0  0
    2.1413   -2.0663    0.0000 C   0  0
    1.4273   -1.6521    0.0000 C   0  0
    0.8551   -1.9812    0.0000 O   0  0
    1.4285   -0.8267    0.0000 N   0  0
    0.7144   -0.4125    0.0000 C   0  0
    0.7144    0.4125    0.0000 C   0  0
    0.0000    0.8250    0.0000 N   0  0
   -0.7144    0.4125    0.0000 C   0  0
   -1.4986    0.6674    0.0000 N   0  0
   -1.9836    0.0000    0.0000 C   0  0
   -1.4986   -0.6674    0.0000 C   0  0
   -1.7536   -1.4525    0.0000 C   0  0
   -2.5429   -1.6831    0.0000 C   0  0
   -2.7380   -2.4847    0.0000 C   0  0
   -2.1413   -3.0545    0.0000 C   0  0
   -1.3495   -2.8226    0.0000 C   0  0
   -1.1544   -2.0210    0.0000 C   0  0
   -0.7144   -0.4125    0.0000 C   0  0
    0.0000   -0.8250    0.0000 C   0  0
   -1.6685    1.1905    0.0000 H   0  0
    1.9053   -0.5525    0.0000 H   0  0
  1  2  1  0
  2  3  2  0
  3  4  1  0
  4  5  2  0
  5  6  1  0
  6  7  1  0
  6  8  2  0
  8  2  1  0
  8  9  1  0
  9 10  2  0
  9 11  1  0
 11 12  1  0
 11 28  1  0
 12 13  2  0
 13 14  1  0
 14 15  2  0
 15 16  1  0
 16 17  1  0
 16 27  1  0
 17 18  2  0
 18 19  1  0
 18 25  1  0
 19 20  2  0
 20 21  1  0
 21 22  2  0
 22 23  1  0
 23 24  2  0
 24 19  1  0
 25 15  1  0
 25 26  2  0
 26 12  1  0
M  END
> <CMPD_CHEMBLID>
CHEMBL1996979

> <STANDARD_TYPE>
Ki

> <RELATION>
=

> <STANDARD_VALUE>
10

> <STANDARD_UNITS>
nM

> <Molecular_Weight>
349.33353

$$$$

  SciTegic11272012012D

 25 27  0  0  0  0            999 V2000
    2.5619   -3.0003    0.0000 C   0  0
    2.2308   -2.4294    0.0000 O   0  0
    1.4053   -2.4306    0.0000 C   0  0
    1.0763   -3.0028    0.0000 O   0  0
    0.9918   -1.7178    0.0000 C   0  0
    1.3273   -0.9642    0.0000 C   0  0
    0.7145   -0.4125    0.0000 C   0  0
    0.7145    0.4125    0.0000 C   0  0
    0.0000    0.8250    0.0000 C   0  0
   -0.0017    1.6505    0.0000 N   0  0
   -0.7172    2.0622    0.0000 C   0  0
   -1.2882    1.7312    0.0000 O   0  0
   -0.7189    2.8876    0.0000 C   0  0
   -0.0044    3.3002    0.0000 C   0  0
   -0.0044    4.1252    0.0000 C   0  0
   -0.7189    4.5377    0.0000 C   0  0
   -1.4334    4.1252    0.0000 C   0  0
   -1.4334    3.3002    0.0000 C   0  0
   -2.0049    2.9702    0.0000 Br  0  0
   -0.7145    0.4125    0.0000 C   0  0
   -0.7145   -0.4125    0.0000 N   0  0
    0.0000   -0.8250    0.0000 C   0  0
    0.1713   -1.6316    0.0000 N   0  0
   -0.1967   -2.0403    0.0000 H   0  0
    0.4741    1.9263    0.0000 H   0  0
  1  2  1  0
  2  3  1  0
  3  4  2  0
  3  5  1  0
  5  6  2  0
  6  7  1  0
  7  8  2  0
  8  9  1  0
  9 10  1  0
  9 20  2  0
 10 11  1  0
 10 25  1  0
 11 12  2  0
 11 13  1  0
 13 14  2  0
 14 15  1  0
 15 16  2  0
 16 17  1  0
 17 18  2  0
 18 13  1  0
 18 19  1  0
 20 21  1  0
 21 22  2  0
 22  7  1  0
 22 23  1  0
 23  5  1  0
 23 24  1  0
M  END
> <CMPD_CHEMBLID>
CHEMBL3347636

> <STANDARD_TYPE>
IC50

> <RELATION>
<

> <STANDARD_VALUE>
10

> <STANDARD_UNITS>
nM

> <Molecular_Weight>
374.18878

$$$$

  SciTegic11272012012D

 40 44  0  0  0  0            999 V2000
    2.0013   -0.4930    0.0000 C   0  0
    1.4302   -0.8237    0.0000 O   0  0
    0.7145   -0.4125    0.0000 C   0  0
    0.7145    0.4125    0.0000 C   0  0
    0.0000    0.8250    0.0000 C   0  0
    0.0000    1.6500    0.0000 N   0  0
   -0.7145    2.0625    0.0000 C   0  0
   -1.4290    1.6500    0.0000 C   0  0
   -1.4290    0.8250    0.0000 C   0  0
   -2.1447    0.4137    0.0000 O   0  0
   -2.8590    0.8275    0.0000 C   0  0
   -2.8562    1.6525    0.0000 C   0  0
   -3.5692    2.0675    0.0000 C   0  0
   -4.2851    1.6574    0.0000 C   0  0
   -4.9994    2.0712    0.0000 N   0  0
   -5.7151    1.6599    0.0000 C   0  0
   -5.7163    0.9999    0.0000 O   0  0
   -6.4294    2.0736    0.0000 C   0  0
   -7.1738    1.7346    0.0000 C   0  0
   -7.3095    1.0887    0.0000 C   0  0
   -7.7238    2.3496    0.0000 N   0  0
   -8.3804    2.2829    0.0000 C   0  0
   -7.3088    3.0627    0.0000 N   0  0
   -6.5025    2.8884    0.0000 C   0  0
   -6.0078    3.3254    0.0000 O   0  0
   -7.6420    3.8179    0.0000 C   0  0
   -8.4505    3.9674    0.0000 C   0  0
   -8.7257    4.7452    0.0000 C   0  0
   -8.1898    5.3724    0.0000 C   0  0
   -7.3787    5.2219    0.0000 C   0  0
   -7.1034    4.4441    0.0000 C   0  0
   -4.2880    0.8324    0.0000 C   0  0
   -3.5749    0.4175    0.0000 C   0  0
   -3.5772   -0.2425    0.0000 F   0  0
   -0.7145    0.4125    0.0000 C   0  0
   -0.7145   -0.4125    0.0000 C   0  0
    0.0000   -0.8250    0.0000 C   0  0
   -0.0017   -1.6505    0.0000 O   0  0
   -0.5738   -1.9797    0.0000 C   0  0
   -4.9985    2.6212    0.0000 H   0  0
  1  2  1  0
  2  3  1  0
  3  4  2  0
  4  5  1  0
  5  6  2  0
  6  7  1  0
  7  8  2  0
  8  9  1  0
  9 10  1  0
  9 35  2  0
 10 11  1  0
 11 12  2  0
 12 13  1  0
 13 14  2  0
 14 15  1  0
 14 32  1  0
 15 16  1  0
 15 40  1  0
 16 17  2  0
 16 18  1  0
 18 19  2  0
 19 20  1  0
 19 21  1  0
 21 22  1  0
 21 23  1  0
 23 24  1  0
 23 26  1  0
 24 18  1  0
 24 25  2  0
 26 27  2  0
 27 28  1  0
 28 29  2  0
 29 30  1  0
 30 31  2  0
 31 26  1  0
 32 33  2  0
 33 11  1  0
 33 34  1  0
 35  5  1  0
 35 36  1  0
 36 37  2  0
 37  3  1  0
 37 38  1  0
 38 39  1  0
M  END
> <CMPD_CHEMBLID>
CHEMBL2031893

> <STANDARD_TYPE>
IC50

> <RELATION>
=

> <STANDARD_VALUE>
10

> <STANDARD_UNITS>
nM

> <Molecular_Weight>
528.531

$$$$

  SciTegic11272012012D

 29 33  0  0  0  0            999 V2000
    1.4273   -1.6522    0.0000 C   0  0
    1.4285   -0.8267    0.0000 N   0  0
    0.7145   -0.4125    0.0000 C   0  0
    0.7145    0.4125    0.0000 N   0  0
    0.0000    0.8250    0.0000 C   0  0
    0.0017    1.6504    0.0000 N   0  0
    0.7171    2.0622    0.0000 C   0  0
    0.7958    2.8764    0.0000 C   0  0
    1.6034    3.0451    0.0000 C   0  0
    2.0134    2.3292    0.0000 N   0  0
    1.4592    1.7180    0.0000 N   0  0
    1.9417    3.7980    0.0000 C   0  0
    1.9075    4.5770    0.0000 C   0  0
    2.6268    4.1729    0.0000 C   0  0
   -0.7145    0.4125    0.0000 C   0  0
   -1.4986    0.6674    0.0000 S   0  0
   -1.9836    0.0000    0.0000 C   0  0
   -1.4986   -0.6674    0.0000 C   0  0
   -0.7145   -0.4125    0.0000 C   0  0
    0.0000   -0.8250    0.0000 N   0  0
    2.1413   -2.0664    0.0000 C   0  0
    2.1414   -2.8914    0.0000 C   0  0
    2.8558   -3.3039    0.0000 C   0  0
    3.5703   -2.8914    0.0000 C   0  0
    3.5703   -2.0664    0.0000 C   0  0
    2.8559   -1.6539    0.0000 C   0  0
    2.5602    2.2698    0.0000 H   0  0
   -0.4742    1.9263    0.0000 H   0  0
    1.9053   -0.5525    0.0000 H   0  0
  1  2  1  0
  1 21  1  0
  2  3  1  0
  2 29  1  0
  3  4  2  0
  4  5  1  0
  5  6  1  0
  5 15  2  0
  6  7  1  0
  6 28  1  0
  7  8  1  0
  8  9  2  0
  9 10  1  0
  9 12  1  0
 10 11  1  0
 10 27  1  0
 11  7  2  0
 12 13  1  0
 13 14  1  0
 14 12  1  0
 15 16  1  0
 16 17  1  0
 17 18  2  0
 18 19  1  0
 19 15  1  0
 19 20  2  0
 20  3  1  0
 21 22  2  0
 22 23  1  0
 23 24  2  0
 24 25  1  0
 25 26  2  0
 26 21  1  0
M  END
> <CMPD_CHEMBLID>
CHEMBL1997924

> <STANDARD_TYPE>
Ki

> <RELATION>
=

> <STANDARD_VALUE>
10

> <STANDARD_UNITS>
nM

> <Molecular_Weight>
362.45142

$$$$

  SciTegic11272012012D

 34 38  0  0  0  0            999 V2000
    2.1456    0.2461    0.0000 C   0  0
    2.1446   -0.4139    0.0000 C   0  0
    2.8584   -0.8275    0.0000 C   0  0
    2.8570   -1.6525    0.0000 C   0  0
    2.1419   -2.0639    0.0000 C   0  0
    1.4281   -1.6503    0.0000 C   0  0
    1.4293   -0.8252    0.0000 C   0  0
    0.7145   -0.4125    0.0000 C   0  0
    0.7145    0.4125    0.0000 C   0  0
    0.0000    0.8250    0.0000 C   0  0
   -0.7145    0.4125    0.0000 C   0  0
   -1.4290    0.8250    0.0000 C   0  0
   -2.1435    0.4125    0.0000 C   0  0
   -2.8592    0.8238    0.0000 N   0  0
   -3.5735    0.4100    0.0000 C   0  0
   -3.5723   -0.2500    0.0000 O   0  0
   -4.2892    0.8213    0.0000 C   0  0
   -4.6582    1.5106    0.0000 C   0  0
   -5.0707    0.7961    0.0000 C   0  0
   -5.6369    0.4571    0.0000 F   0  0
   -2.1435   -0.4125    0.0000 N   0  0
   -1.4290   -0.8250    0.0000 C   0  0
   -0.7145   -0.4125    0.0000 C   0  0
    0.0000   -0.8250    0.0000 C   0  0
    2.1389   -2.8894    0.0000 C   0  0
    2.7094   -3.2213    0.0000 O   0  0
    1.4228   -3.3000    0.0000 N   0  0
    1.4198   -4.1254    0.0000 C   0  0
    0.8471   -4.4536    0.0000 C   0  0
    2.1730   -3.8888    0.0000 C   0  0
    2.3838   -4.6865    0.0000 O   0  0
    1.5861   -4.8972    0.0000 C   0  0
    0.9474   -3.0234    0.0000 H   0  0
   -2.8602    1.3738    0.0000 H   0  0
  1  2  1  0
  2  3  2  0
  3  4  1  0
  4  5  2  0
  5  6  1  0
  5 25  1  0
  6  7  2  0
  7  2  1  0
  7  8  1  0
  8  9  2  0
  9 10  1  0
 10 11  2  0
 11 12  1  0
 12 13  2  0
 13 14  1  0
 13 21  1  0
 14 15  1  0
 14 34  1  0
 15 16  2  0
 15 17  1  0
 17 18  1  0
 18 19  1  0
 19 17  1  0
 19 20  1  0
 21 22  2  0
 22 23  1  0
 23 11  1  0
 23 24  2  0
 24  8  1  0
 25 26  2  0
 25 27  1  0
 27 28  1  0
 27 33  1  0
 28 29  1  0
 28 30  1  0
 30 31  1  0
 31 32  1  0
 32 28  1  0
M  END
> <CMPD_CHEMBLID>
CHEMBL3689630

> <STANDARD_TYPE>
Ki

> <RELATION>
=

> <STANDARD_VALUE>
10

> <STANDARD_UNITS>
nM

> <Molecular_Weight>
433.47476

$$$$

  SciTegic11272012012D

 35 39  0  0  0  0            999 V2000
    0.8560   -1.9794    0.0000 C   0  0
    1.4281   -1.6502    0.0000 C   0  0
    2.1419   -2.0639    0.0000 C   0  0
    2.8570   -1.6525    0.0000 C   0  0
    2.8583   -0.8275    0.0000 C   0  0
    2.1445   -0.4139    0.0000 C   0  0
    2.1456    0.2461    0.0000 C   0  0
    1.4293   -0.8252    0.0000 C   0  0
    0.7145   -0.4125    0.0000 C   0  0
    0.7145    0.4125    0.0000 C   0  0
    0.0000    0.8250    0.0000 C   0  0
    0.0000    1.4850    0.0000 C   0  0
   -0.7145    0.4125    0.0000 C   0  0
   -1.4290    0.8250    0.0000 N   0  0
   -2.1434    0.4125    0.0000 C   0  0
   -2.8592    0.8237    0.0000 N   0  0
   -3.5735    0.4100    0.0000 C   0  0
   -4.2894    0.8200    0.0000 C   0  0
   -5.0024    0.4050    0.0000 C   0  0
   -4.9996   -0.4200    0.0000 C   0  0
   -5.7122   -0.8367    0.0000 O   0  0
   -5.7081   -1.6621    0.0000 C   0  0
   -6.4207   -2.0788    0.0000 C   0  0
   -6.4167   -2.9043    0.0000 N   0  0
   -7.0809   -3.3818    0.0000 C   0  0
   -6.8204   -4.1647    0.0000 C   0  0
   -5.9955   -4.1589    0.0000 C   0  0
   -5.7460   -3.3725    0.0000 C   0  0
   -4.2837   -0.8300    0.0000 C   0  0
   -3.5706   -0.4150    0.0000 C   0  0
   -2.1434   -0.4125    0.0000 N   0  0
   -1.4290   -0.8250    0.0000 N   0  0
   -0.7145   -0.4125    0.0000 C   0  0
    0.0000   -0.8250    0.0000 C   0  0
   -2.8601    1.3738    0.0000 H   0  0
  1  2  1  0
  2  3  2  0
  3  4  1  0
  4  5  2  0
  5  6  1  0
  6  7  1  0
  6  8  2  0
  8  2  1  0
  8  9  1  0
  9 10  2  0
 10 11  1  0
 11 12  1  0
 11 13  2  0
 13 14  1  0
 14 15  2  0
 15 16  1  0
 15 31  1  0
 16 17  1  0
 16 35  1  0
 17 18  2  0
 18 19  1  0
 19 20  2  0
 20 21  1  0
 20 29  1  0
 21 22  1  0
 22 23  1  0
 23 24  1  0
 24 25  1  0
 25 26  1  0
 26 27  1  0
 27 28  1  0
 28 24  1  0
 29 30  2  0
 30 17  1  0
 31 32  2  0
 32 33  1  0
 33 13  1  0
 33 34  2  0
 34  9  1  0
M  END
> <CMPD_CHEMBLID>
CHEMBL436137

> <STANDARD_TYPE>
Ki

> <RELATION>
=

> <STANDARD_VALUE>
11

> <STANDARD_UNITS>
nM

> <Molecular_Weight>
453.57864

$$$$

  SciTegic11272012012D

 27 31  0  0  0  0            999 V2000
    0.8551   -1.9812    0.0000 O   0  0
    1.4273   -1.6521    0.0000 C   0  0
    1.4285   -0.8267    0.0000 N   0  0
    0.7144   -0.4125    0.0000 C   0  0
    0.7144    0.4125    0.0000 C   0  0
    0.0000    0.8250    0.0000 C   0  0
    0.0000    1.6500    0.0000 C   0  0
   -0.7145    2.0625    0.0000 C   0  0
   -1.4290    1.6500    0.0000 C   0  0
   -1.4290    0.8250    0.0000 C   0  0
   -0.7144    0.4125    0.0000 C   0  0
   -0.7144   -0.4125    0.0000 C   0  0
    0.0000   -0.8250    0.0000 N   0  0
   -2.1438    2.0627    0.0000 C   0  0
   -2.1452    2.8877    0.0000 C   0  0
   -2.8603    3.2991    0.0000 C   0  0
   -3.5741    2.8855    0.0000 C   0  0
   -4.3586    3.1391    0.0000 C   0  0
   -4.8425    2.4709    0.0000 N   0  0
   -4.3565    1.8043    0.0000 N   0  0
   -3.5728    2.0605    0.0000 C   0  0
   -2.8576    1.6491    0.0000 C   0  0
    2.1413   -2.0663    0.0000 C   0  0
    2.5103   -2.7557    0.0000 C   0  0
    2.9228   -2.0412    0.0000 C   0  0
   -4.5256    1.2809    0.0000 H   0  0
    1.9053   -0.5525    0.0000 H   0  0
  1  2  2  0
  2  3  1  0
  2 23  1  0
  3  4  1  0
  3 27  1  0
  4  5  2  0
  5  6  1  0
  6  7  2  0
  7  8  1  0
  8  9  2  0
  9 10  1  0
  9 14  1  0
 10 11  2  0
 11  6  1  0
 11 12  1  0
 12 13  2  0
 13  4  1  0
 14 15  2  0
 15 16  1  0
 16 17  2  0
 17 18  1  0
 18 19  2  0
 19 20  1  0
 20 21  1  0
 20 26  1  0
 21 17  1  0
 21 22  2  0
 22 14  1  0
 23 24  1  0
 24 25  1  0
 25 23  1  0
M  END
> <CMPD_CHEMBLID>
CHEMBL3685135

> <STANDARD_TYPE>
Ki

> <RELATION>
=

> <STANDARD_VALUE>
11

> <STANDARD_UNITS>
nM

> <Molecular_Weight>
328.36724

$$$$

  SciTegic11272012012D

 24 26  0  0  0  0            999 V2000
    0.8552   -1.9812    0.0000 C   0  0
    1.4273   -1.6522    0.0000 C   0  0
    0.8563   -1.3213    0.0000 C   0  0
    2.1414   -2.0664    0.0000 C   0  0
    2.1402   -2.8919    0.0000 O   0  0
    1.4285   -0.8267    0.0000 O   0  0
    0.7145   -0.4125    0.0000 C   0  0
    0.7145    0.4125    0.0000 C   0  0
    0.0000    0.8250    0.0000 C   0  0
   -0.7145    0.4125    0.0000 C   0  0
   -1.4290    0.8250    0.0000 C   0  0
   -2.1435    0.4125    0.0000 C   0  0
   -2.8592    0.8238    0.0000 N   0  0
   -3.5735    0.4100    0.0000 C   0  0
   -3.5723   -0.2500    0.0000 O   0  0
   -4.2892    0.8213    0.0000 C   0  0
   -5.0707    0.7961    0.0000 C   0  0
   -4.6582    1.5106    0.0000 C   0  0
   -2.1435   -0.4125    0.0000 N   0  0
   -1.4290   -0.8250    0.0000 C   0  0
   -0.7145   -0.4125    0.0000 C   0  0
    0.0000   -0.8250    0.0000 C   0  0
   -2.8602    1.3738    0.0000 H   0  0
    2.6160   -3.1678    0.0000 H   0  0
  1  2  1  0
  2  3  1  0
  2  4  1  0
  2  6  1  0
  4  5  1  0
  5 24  1  0
  6  7  1  0
  7  8  2  0
  8  9  1  0
  9 10  2  0
 10 11  1  0
 11 12  2  0
 12 13  1  0
 12 19  1  0
 13 14  1  0
 13 23  1  0
 14 15  2  0
 14 16  1  0
 16 17  1  0
 17 18  1  0
 18 16  1  0
 19 20  2  0
 20 21  1  0
 21 10  1  0
 21 22  2  0
 22  7  1  0
M  END
> <CMPD_CHEMBLID>
CHEMBL3685159

> <STANDARD_TYPE>
Ki

> <RELATION>
=

> <STANDARD_VALUE>
11

> <STANDARD_UNITS>
nM

> <Molecular_Weight>
300.3523

$$$$

  SciTegic11272012012D

 26 29  0  0  0  0            999 V2000
    2.0013   -0.4930    0.0000 C   0  0
    1.4302   -0.8237    0.0000 C   0  0
    0.7144   -0.4125    0.0000 C   0  0
    0.7144    0.4125    0.0000 N   0  0
    0.0000    0.8250    0.0000 C   0  0
    0.0000    1.6500    0.0000 C   0  0
   -0.7145    2.0625    0.0000 C   0  0
   -0.7162    2.8879    0.0000 N   0  0
   -1.4317    3.2997    0.0000 C   0  0
   -2.0027    2.9687    0.0000 O   0  0
   -1.4334    4.1251    0.0000 C   0  0
   -1.8458    4.7893    0.0000 C   0  0
   -1.0208    4.7893    0.0000 C   0  0
   -1.4290    1.6500    0.0000 N   0  0
   -1.4290    0.8250    0.0000 C   0  0
   -0.7144    0.4125    0.0000 C   0  0
   -0.7144   -0.4125    0.0000 C   0  0
    0.0000   -0.8250    0.0000 C   0  0
    0.0000   -1.6504    0.0000 C   0  0
    0.7151   -2.0618    0.0000 C   0  0
    0.7164   -2.8868    0.0000 C   0  0
    0.0026   -3.3005    0.0000 C   0  0
   -0.7125   -2.8891    0.0000 C   0  0
   -0.7138   -2.0641    0.0000 C   0  0
   -1.2859   -1.7350    0.0000 Cl  0  0
   -0.2404    3.1638    0.0000 H   0  0
  1  2  1  0
  2  3  1  0
  3  4  2  0
  4  5  1  0
  5  6  2  0
  6  7  1  0
  7  8  1  0
  7 14  2  0
  8  9  1  0
  8 26  1  0
  9 10  2  0
  9 11  1  0
 11 12  1  0
 12 13  1  0
 13 11  1  0
 14 15  1  0
 15 16  2  0
 16  5  1  0
 16 17  1  0
 17 18  2  0
 18  3  1  0
 18 19  1  0
 19 20  2  0
 20 21  1  0
 21 22  2  0
 22 23  1  0
 23 24  2  0
 24 19  1  0
 24 25  1  0
M  END
> <CMPD_CHEMBLID>
CHEMBL3689681

> <STANDARD_TYPE>
Ki

> <RELATION>
=

> <STANDARD_VALUE>
11

> <STANDARD_UNITS>
nM

> <Molecular_Weight>
351.82942

$$$$

  SciTegic11272012012D

 33 37  0  0  0  0            999 V2000
    2.1455    0.2461    0.0000 C   0  0
    2.1445   -0.4139    0.0000 C   0  0
    2.8583   -0.8275    0.0000 C   0  0
    2.8570   -1.6525    0.0000 C   0  0
    2.1419   -2.0639    0.0000 C   0  0
    2.1408   -2.7239    0.0000 F   0  0
    1.4281   -1.6502    0.0000 C   0  0
    1.4293   -0.8252    0.0000 C   0  0
    0.7144   -0.4125    0.0000 C   0  0
    0.7144    0.4125    0.0000 C   0  0
    0.0000    0.8250    0.0000 C   0  0
    0.0000    1.6500    0.0000 C   0  0
   -0.7145    2.0625    0.0000 N   0  0
   -1.4290    1.6500    0.0000 C   0  0
   -2.1447    2.0612    0.0000 N   0  0
   -2.8590    1.6475    0.0000 C   0  0
   -2.8578    0.9875    0.0000 O   0  0
   -3.5747    2.0588    0.0000 C   0  0
   -4.3561    2.0337    0.0000 C   0  0
   -3.9436    2.7481    0.0000 C   0  0
   -1.4290    0.8250    0.0000 C   0  0
   -0.7144    0.4125    0.0000 C   0  0
   -0.7144   -0.4125    0.0000 C   0  0
   -1.4285   -0.8267    0.0000 N   0  0
   -1.4273   -1.6521    0.0000 C   0  0
   -2.1403   -2.0672    0.0000 C   0  0
   -2.1375   -2.8922    0.0000 C   0  0
   -1.4216   -3.3022    0.0000 C   0  0
   -0.7086   -2.8872    0.0000 C   0  0
   -0.7114   -2.0622    0.0000 C   0  0
    0.0000   -0.8250    0.0000 N   0  0
   -1.9053   -0.5525    0.0000 H   0  0
   -2.1457    2.6112    0.0000 H   0  0
  1  2  1  0
  2  3  2  0
  3  4  1  0
  4  5  2  0
  5  6  1  0
  5  7  1  0
  7  8  2  0
  8  2  1  0
  8  9  1  0
  9 10  2  0
 10 11  1  0
 11 12  2  0
 12 13  1  0
 13 14  2  0
 14 15  1  0
 14 21  1  0
 15 16  1  0
 15 33  1  0
 16 17  2  0
 16 18  1  0
 18 19  1  0
 19 20  1  0
 20 18  1  0
 21 22  2  0
 22 11  1  0
 22 23  1  0
 23 24  1  0
 23 31  2  0
 24 25  1  0
 24 32  1  0
 25 26  2  0
 26 27  1  0
 27 28  2  0
 28 29  1  0
 29 30  2  0
 30 25  1  0
 31  9  1  0
M  END
> <CMPD_CHEMBLID>
CHEMBL3689656

> <STANDARD_TYPE>
Ki

> <RELATION>
=

> <STANDARD_VALUE>
11

> <STANDARD_UNITS>
nM

> <Molecular_Weight>
412.45884

$$$$

  SciTegic11272012012D

 34 37  0  0  0  0            999 V2000
    2.1456    0.2461    0.0000 C   0  0
    2.1445   -0.4139    0.0000 C   0  0
    2.8583   -0.8275    0.0000 C   0  0
    2.8570   -1.6525    0.0000 C   0  0
    2.1419   -2.0639    0.0000 C   0  0
    1.4281   -1.6502    0.0000 C   0  0
    1.4293   -0.8252    0.0000 C   0  0
    0.7145   -0.4125    0.0000 C   0  0
    0.7145    0.4125    0.0000 C   0  0
    0.0000    0.8250    0.0000 C   0  0
   -0.7145    0.4125    0.0000 C   0  0
   -1.4290    0.8250    0.0000 C   0  0
   -2.1434    0.4125    0.0000 C   0  0
   -2.8592    0.8237    0.0000 N   0  0
   -3.5735    0.4100    0.0000 C   0  0
   -3.5723   -0.2500    0.0000 O   0  0
   -4.2892    0.8213    0.0000 C   0  0
   -5.0706    0.7961    0.0000 C   0  0
   -4.6581    1.5106    0.0000 C   0  0
   -2.1434   -0.4125    0.0000 N   0  0
   -1.4290   -0.8250    0.0000 C   0  0
   -0.7145   -0.4125    0.0000 C   0  0
    0.0000   -0.8250    0.0000 C   0  0
    2.1389   -2.8894    0.0000 C   0  0
    2.7094   -3.2213    0.0000 O   0  0
    1.4228   -3.2999    0.0000 N   0  0
    1.4198   -4.1254    0.0000 C   0  0
    1.4177   -4.7854    0.0000 C   0  0
    1.9903   -4.4573    0.0000 C   0  0
    0.7037   -4.5360    0.0000 C   0  0
    0.7007   -5.3614    0.0000 O   0  0
    0.2235   -5.6350    0.0000 H   0  0
    0.9474   -3.0233    0.0000 H   0  0
   -2.8601    1.3738    0.0000 H   0  0
  1  2  1  0
  2  3  2  0
  3  4  1  0
  4  5  2  0
  5  6  1  0
  5 24  1  0
  6  7  2  0
  7  2  1  0
  7  8  1  0
  8  9  2  0
  9 10  1  0
 10 11  2  0
 11 12  1  0
 12 13  2  0
 13 14  1  0
 13 20  1  0
 14 15  1  0
 14 34  1  0
 15 16  2  0
 15 17  1  0
 17 18  1  0
 18 19  1  0
 19 17  1  0
 20 21  2  0
 21 22  1  0
 22 11  1  0
 22 23  2  0
 23  8  1  0
 24 25  2  0
 24 26  1  0
 26 27  1  0
 26 33  1  0
 27 28  1  0
 27 29  1  0
 27 30  1  0
 30 31  1  0
 31 32  1  0
M  END
> <CMPD_CHEMBLID>
CHEMBL3689615

> <STANDARD_TYPE>
Ki

> <RELATION>
=

> <STANDARD_VALUE>
11

> <STANDARD_UNITS>
nM

> <Molecular_Weight>
417.50018

$$$$

  SciTegic11272012012D

 43 46  0  0  0  0            999 V2000
    1.2861   -0.7425    0.0000 C   0  0
    0.7144   -0.4125    0.0000 N   0  0
    0.7144    0.4125    0.0000 C   0  0
    1.2861    0.7425    0.0000 O   0  0
    0.0000    0.8250    0.0000 C   0  0
   -0.7144    0.4125    0.0000 C   0  0
   -0.7144   -0.4125    0.0000 C   0  0
   -1.4290   -0.8250    0.0000 C   0  0
   -1.4290   -1.6500    0.0000 N   0  0
   -0.7144   -2.0625    0.0000 C   0  0
   -0.7127   -2.8879    0.0000 N   0  0
    0.0027   -3.2997    0.0000 C   0  0
    0.0056   -4.1247    0.0000 C   0  0
    0.7215   -4.5347    0.0000 C   0  0
    1.4345   -4.1197    0.0000 C   0  0
    2.1517   -4.5285    0.0000 N   0  0
    2.8645   -4.1123    0.0000 C   0  0
    2.8610   -3.4523    0.0000 O   0  0
    3.5817   -4.5211    0.0000 C   0  0
    4.2945   -4.1049    0.0000 C   0  0
    5.0116   -4.5136    0.0000 N   0  0
    5.7245   -4.0974    0.0000 C   0  0
    5.7210   -3.4374    0.0000 O   0  0
    6.4416   -4.5061    0.0000 O   0  0
    7.1544   -4.0900    0.0000 C   0  0
    7.7278   -4.4168    0.0000 C   0  0
    7.1510   -3.4300    0.0000 C   0  0
    7.7242   -3.7569    0.0000 C   0  0
    1.4317   -3.2947    0.0000 C   0  0
    0.7158   -2.8847    0.0000 C   0  0
    0.0000   -1.6500    0.0000 N   0  0
    0.0000   -0.8250    0.0000 C   0  0
    0.0000    1.6504    0.0000 C   0  0
    0.7138    2.0641    0.0000 C   0  0
    1.2859    1.7350    0.0000 Cl  0  0
    0.7125    2.8891    0.0000 C   0  0
   -0.0026    3.3005    0.0000 C   0  0
   -0.7164    2.8868    0.0000 C   0  0
   -0.7151    2.0618    0.0000 C   0  0
   -1.2862    1.7310    0.0000 Cl  0  0
    5.0145   -5.0636    0.0000 H   0  0
    2.1545   -5.0785    0.0000 H   0  0
   -1.1886   -3.1638    0.0000 H   0  0
  1  2  1  0
  2  3  1  0
  3  4  2  0
  3  5  1  0
  5  6  2  0
  5 33  1  0
  6  7  1  0
  7  8  2  0
  8  9  1  0
  9 10  2  0
 10 11  1  0
 10 31  1  0
 11 12  1  0
 11 43  1  0
 12 13  2  0
 13 14  1  0
 14 15  2  0
 15 16  1  0
 15 29  1  0
 16 17  1  0
 16 42  1  0
 17 18  2  0
 17 19  1  0
 19 20  1  0
 20 21  1  0
 21 22  1  0
 21 41  1  0
 22 23  2  0
 22 24  1  0
 24 25  1  0
 25 26  1  0
 25 27  1  0
 25 28  1  0
 29 30  2  0
 30 12  1  0
 31 32  2  0
 32  2  1  0
 32  7  1  0
 33 34  2  0
 34 35  1  0
 34 36  1  0
 36 37  2  0
 37 38  1  0
 38 39  2  0
 39 33  1  0
 39 40  1  0
M  END
> <CMPD_CHEMBLID>
CHEMBL565609

> <STANDARD_TYPE>
IC50

> <RELATION>
=

> <STANDARD_VALUE>
12

> <STANDARD_UNITS>
nM

> <Molecular_Weight>
583.46572

$$$$

  SciTegic11272012012D

 27 30  0  0  0  0            999 V2000
    2.1456    0.2461    0.0000 C   0  0
    2.1445   -0.4139    0.0000 C   0  0
    2.8583   -0.8275    0.0000 C   0  0
    2.8570   -1.6525    0.0000 C   0  0
    2.1419   -2.0639    0.0000 C   0  0
    2.1408   -2.7239    0.0000 F   0  0
    1.4281   -1.6502    0.0000 C   0  0
    1.4293   -0.8252    0.0000 C   0  0
    0.7145   -0.4125    0.0000 C   0  0
    0.7145    0.4125    0.0000 C   0  0
    0.0000    0.8250    0.0000 C   0  0
   -0.7145    0.4125    0.0000 C   0  0
   -1.4290    0.8250    0.0000 C   0  0
   -2.1434    0.4125    0.0000 C   0  0
   -2.8591    0.8237    0.0000 N   0  0
   -3.5734    0.4100    0.0000 C   0  0
   -3.5723   -0.2500    0.0000 O   0  0
   -4.2891    0.8213    0.0000 C   0  0
   -5.0324    0.4797    0.0000 C   0  0
   -5.5845    1.0927    0.0000 C   0  0
   -5.1720    1.8073    0.0000 C   0  0
   -4.3650    1.6357    0.0000 C   0  0
   -2.1434   -0.4125    0.0000 N   0  0
   -1.4290   -0.8250    0.0000 C   0  0
   -0.7145   -0.4125    0.0000 C   0  0
    0.0000   -0.8250    0.0000 C   0  0
   -2.8601    1.3737    0.0000 H   0  0
  1  2  1  0
  2  3  2  0
  3  4  1  0
  4  5  2  0
  5  6  1  0
  5  7  1  0
  7  8  2  0
  8  2  1  0
  8  9  1  0
  9 10  2  0
 10 11  1  0
 11 12  2  0
 12 13  1  0
 13 14  2  0
 14 15  1  0
 14 23  1  0
 15 16  1  0
 15 27  1  0
 16 17  2  0
 16 18  1  0
 18 19  1  0
 19 20  1  0
 20 21  1  0
 21 22  1  0
 22 18  1  0
 23 24  2  0
 24 25  1  0
 25 12  1  0
 25 26  2  0
 26  9  1  0
M  END
> <CMPD_CHEMBLID>
CHEMBL3685003

> <STANDARD_TYPE>
Ki

> <RELATION>
=

> <STANDARD_VALUE>
12

> <STANDARD_UNITS>
nM

> <Molecular_Weight>
348.41334

$$$$

  SciTegic11272012012D

 22 24  0  0  0  0            999 V2000
    2.1404   -2.7264    0.0000 C   0  0
    2.1414   -2.0664    0.0000 C   0  0
    2.7135   -1.7374    0.0000 C   0  0
    1.4273   -1.6522    0.0000 C   0  0
    1.4285   -0.8267    0.0000 O   0  0
    0.7145   -0.4125    0.0000 C   0  0
    0.7145    0.4125    0.0000 C   0  0
    0.0000    0.8250    0.0000 C   0  0
   -0.7145    0.4125    0.0000 C   0  0
   -1.4290    0.8250    0.0000 C   0  0
   -2.1435    0.4125    0.0000 C   0  0
   -2.8592    0.8238    0.0000 N   0  0
   -3.5735    0.4100    0.0000 C   0  0
   -3.5723   -0.2500    0.0000 O   0  0
   -4.2892    0.8213    0.0000 C   0  0
   -5.0707    0.7961    0.0000 C   0  0
   -4.6582    1.5106    0.0000 C   0  0
   -2.1435   -0.4125    0.0000 N   0  0
   -1.4290   -0.8250    0.0000 C   0  0
   -0.7145   -0.4125    0.0000 C   0  0
    0.0000   -0.8250    0.0000 C   0  0
   -2.8602    1.3738    0.0000 H   0  0
  1  2  1  0
  2  3  1  0
  2  4  1  0
  4  5  1  0
  5  6  1  0
  6  7  2  0
  7  8  1  0
  8  9  2  0
  9 10  1  0
 10 11  2  0
 11 12  1  0
 11 18  1  0
 12 13  1  0
 12 22  1  0
 13 14  2  0
 13 15  1  0
 15 16  1  0
 16 17  1  0
 17 15  1  0
 18 19  2  0
 19 20  1  0
 20  9  1  0
 20 21  2  0
 21  6  1  0
M  END
> <CMPD_CHEMBLID>
CHEMBL3685141

> <STANDARD_TYPE>
Ki

> <RELATION>
=

> <STANDARD_VALUE>
12

> <STANDARD_UNITS>
nM

> <Molecular_Weight>
284.3529

$$$$

  SciTegic11272012012D

 43 47  0  0  0  0            999 V2000
   -2.4959   -2.6711    0.0000 C   0  0
   -2.2921   -3.2988    0.0000 C   0  0
   -2.8442   -3.9117    0.0000 C   0  0
   -2.5894   -4.6964    0.0000 C   0  0
   -1.7825   -4.8681    0.0000 C   0  0
   -1.2303   -4.2551    0.0000 C   0  0
   -1.4851   -3.4705    0.0000 C   0  0
   -0.9327   -2.8571    0.0000 C   0  0
   -0.3802   -2.2438    0.0000 C   0  0
    0.1713   -1.6316    0.0000 C   0  0
    0.9918   -1.7178    0.0000 C   0  0
    1.3273   -0.9641    0.0000 N   0  0
    0.7144   -0.4125    0.0000 C   0  0
    0.7144    0.4125    0.0000 C   0  0
    0.0000    0.8250    0.0000 C   0  0
   -0.7144    0.4125    0.0000 C   0  0
   -0.7144   -0.4125    0.0000 N   0  0
    0.0000   -0.8250    0.0000 N   0  0
   -1.5260   -5.6527    0.0000 C   0  0
   -1.9668   -6.1438    0.0000 O   0  0
   -0.7184   -5.8233    0.0000 N   0  0
   -0.4618   -6.6079    0.0000 C   0  0
    0.3452   -6.7796    0.0000 C   0  0
    0.5999   -7.5643    0.0000 C   0  0
    0.0478   -8.1772    0.0000 C   0  0
    0.3044   -8.9618    0.0000 C   0  0
    1.1120   -9.1325    0.0000 N   0  0
    1.3695   -9.9162    0.0000 C   0  0
    2.1771  -10.0851    0.0000 C   0  0
    2.7271   -9.4702    0.0000 N   0  0
    3.5354   -9.6375    0.0000 C   0  0
    4.0849   -9.0215    0.0000 C   0  0
    4.8932   -9.1888    0.0000 O   0  0
    2.4696   -8.6864    0.0000 C   0  0
    1.6621   -8.5175    0.0000 C   0  0
   -0.7591   -8.0056    0.0000 C   0  0
   -1.0139   -7.2210    0.0000 C   0  0
   -1.3116   -8.6189    0.0000 C   0  0
   -1.1081   -9.2468    0.0000 F   0  0
   -1.9571   -8.4814    0.0000 F   0  0
   -1.7535   -9.1091    0.0000 F   0  0
    5.2593   -8.7783    0.0000 H   0  0
   -0.3510   -5.4140    0.0000 H   0  0
  1  2  1  0
  2  3  2  0
  3  4  1  0
  4  5  2  0
  5  6  1  0
  5 19  1  0
  6  7  2  0
  7  2  1  0
  7  8  1  0
  8  9  3  0
  9 10  1  0
 10 11  2  0
 11 12  1  0
 12 13  2  0
 13 14  1  0
 14 15  2  0
 15 16  1  0
 16 17  2  0
 17 18  1  0
 18 10  1  0
 18 13  1  0
 19 20  2  0
 19 21  1  0
 21 22  1  0
 21 43  1  0
 22 23  2  0
 23 24  1  0
 24 25  2  0
 25 26  1  0
 25 36  1  0
 26 27  1  0
 27 28  1  0
 28 29  1  0
 29 30  1  0
 30 31  1  0
 30 34  1  0
 31 32  1  0
 32 33  1  0
 33 42  1  0
 34 35  1  0
 35 27  1  0
 36 37  2  0
 36 38  1  0
 37 22  1  0
 38 39  1  0
 38 40  1  0
 38 41  1  0
M  END
> <CMPD_CHEMBLID>
CHEMBL1171432

> <STANDARD_TYPE>
IC50

> <RELATION>
=

> <STANDARD_VALUE>
12

> <STANDARD_UNITS>
nM

> <Molecular_Weight>
562.58547

$$$$

  SciTegic11272012012D

 32 36  0  0  0  0            999 V2000
    2.1455    0.2461    0.0000 C   0  0
    2.1445   -0.4139    0.0000 C   0  0
    2.8583   -0.8275    0.0000 C   0  0
    2.8570   -1.6525    0.0000 C   0  0
    2.1419   -2.0639    0.0000 C   0  0
    2.1408   -2.7239    0.0000 F   0  0
    1.4281   -1.6502    0.0000 C   0  0
    1.4293   -0.8252    0.0000 C   0  0
    0.7144   -0.4125    0.0000 C   0  0
    0.7144    0.4125    0.0000 C   0  0
    0.0000    0.8250    0.0000 C   0  0
    0.0000    1.6500    0.0000 C   0  0
   -0.7145    2.0625    0.0000 N   0  0
   -1.4290    1.6500    0.0000 C   0  0
   -2.1447    2.0612    0.0000 N   0  0
   -2.8590    1.6475    0.0000 C   0  0
   -2.8578    0.9875    0.0000 O   0  0
   -3.5747    2.0588    0.0000 C   0  0
   -4.3561    2.0337    0.0000 C   0  0
   -3.9436    2.7481    0.0000 C   0  0
   -1.4290    0.8250    0.0000 C   0  0
   -0.7144    0.4125    0.0000 C   0  0
   -0.7144   -0.4125    0.0000 C   0  0
   -1.4285   -0.8267    0.0000 O   0  0
   -1.4273   -1.6521    0.0000 C   0  0
   -2.1403   -2.0672    0.0000 C   0  0
   -2.1375   -2.8922    0.0000 C   0  0
   -1.4216   -3.3022    0.0000 C   0  0
   -0.7086   -2.8872    0.0000 C   0  0
   -0.7114   -2.0622    0.0000 C   0  0
    0.0000   -0.8250    0.0000 N   0  0
   -2.1457    2.6112    0.0000 H   0  0
  1  2  1  0
  2  3  2  0
  3  4  1  0
  4  5  2  0
  5  6  1  0
  5  7  1  0
  7  8  2  0
  8  2  1  0
  8  9  1  0
  9 10  2  0
 10 11  1  0
 11 12  2  0
 12 13  1  0
 13 14  2  0
 14 15  1  0
 14 21  1  0
 15 16  1  0
 15 32  1  0
 16 17  2  0
 16 18  1  0
 18 19  1  0
 19 20  1  0
 20 18  1  0
 21 22  2  0
 22 11  1  0
 22 23  1  0
 23 24  1  0
 23 31  2  0
 24 25  1  0
 25 26  2  0
 26 27  1  0
 27 28  2  0
 28 29  1  0
 29 30  2  0
 30 25  1  0
 31  9  1  0
M  END
> <CMPD_CHEMBLID>
CHEMBL3689654

> <STANDARD_TYPE>
Ki

> <RELATION>
=

> <STANDARD_VALUE>
12

> <STANDARD_UNITS>
nM

> <Molecular_Weight>
413.4436

$$$$

  SciTegic11272012012D

 41 44  0  0  0  0            999 V2000
    1.2861   -0.7425    0.0000 C   0  0
    0.7144   -0.4125    0.0000 N   0  0
    0.7144    0.4125    0.0000 C   0  0
    0.0000    0.8250    0.0000 C   0  0
   -0.7144    0.4125    0.0000 N   0  0
   -1.4302    0.8237    0.0000 C   0  0
   -2.1444    0.4100    0.0000 C   0  0
   -2.1416   -0.4150    0.0000 C   0  0
   -2.8546   -0.8300    0.0000 C   0  0
   -3.5706   -0.4200    0.0000 C   0  0
   -4.2849   -0.8337    0.0000 N   0  0
   -5.0006   -0.4225    0.0000 C   0  0
   -5.0017    0.2375    0.0000 O   0  0
   -5.7149   -0.8362    0.0000 C   0  0
   -6.4307   -0.4261    0.0000 C   0  0
   -7.1438   -0.8411    0.0000 C   0  0
   -7.1409   -1.6661    0.0000 C   0  0
   -7.7114   -1.9980    0.0000 C   0  0
   -6.4251   -2.0761    0.0000 C   0  0
   -5.7120   -1.6612    0.0000 C   0  0
   -6.4223   -2.9016    0.0000 C   0  0
   -6.4194   -3.7270    0.0000 C   0  0
   -6.4166   -4.5524    0.0000 C   0  0
   -7.0824   -5.0276    0.0000 C   0  0
   -6.8247   -5.8113    0.0000 N   0  0
   -5.9997   -5.8085    0.0000 C   0  0
   -5.5117   -6.4725    0.0000 N   0  0
   -4.6913   -6.3822    0.0000 C   0  0
   -4.3004   -6.9140    0.0000 O   0  0
   -4.4259   -5.7779    0.0000 C   0  0
   -5.7475   -5.0230    0.0000 S   0  0
   -3.5734    0.4050    0.0000 C   0  0
   -2.8604    0.8200    0.0000 C   0  0
   -2.8633    1.6454    0.0000 C   0  0
   -3.4358    1.9738    0.0000 F   0  0
   -2.2927    1.9772    0.0000 F   0  0
   -2.8653    2.3054    0.0000 F   0  0
   -0.7144   -0.4125    0.0000 C   0  0
    0.0000   -0.8250    0.0000 C   0  0
   -5.7328   -6.9761    0.0000 H   0  0
   -4.2839   -1.3837    0.0000 H   0  0
  1  2  1  0
  2  3  1  0
  3  4  1  0
  4  5  1  0
  5  6  1  0
  5 38  1  0
  6  7  1  0
  7  8  2  0
  8  9  1  0
  9 10  2  0
 10 11  1  0
 10 32  1  0
 11 12  1  0
 11 41  1  0
 12 13  2  0
 12 14  1  0
 14 15  2  0
 15 16  1  0
 16 17  2  0
 17 18  1  0
 17 19  1  0
 19 20  2  0
 19 21  1  0
 20 14  1  0
 21 22  3  0
 22 23  1  0
 23 24  2  0
 24 25  1  0
 25 26  2  0
 26 27  1  0
 26 31  1  0
 27 28  1  0
 27 40  1  0
 28 29  2  0
 28 30  1  0
 31 23  1  0
 32 33  2  0
 33  7  1  0
 33 34  1  0
 34 35  1  0
 34 36  1  0
 34 37  1  0
 38 39  1  0
 39  2  1  0
M  END
> <CMPD_CHEMBLID>
CHEMBL1784641

> <STANDARD_TYPE>
IC50

> <RELATION>
=

> <STANDARD_VALUE>
12

> <STANDARD_UNITS>
nM

> <Molecular_Weight>
555.61443

$$$$

  SciTegic11272012012D

 40 44  0  0  0  0            999 V2000
    1.2861   -0.7425    0.0000 C   0  0
    0.7144   -0.4125    0.0000 N   0  0
    0.7144    0.4125    0.0000 C   0  0
    0.0000    0.8250    0.0000 C   0  0
   -0.7144    0.4125    0.0000 N   0  0
   -1.4302    0.8237    0.0000 C   0  0
   -2.1444    0.4100    0.0000 C   0  0
   -2.1416   -0.4150    0.0000 C   0  0
   -2.8546   -0.8300    0.0000 C   0  0
   -3.5706   -0.4200    0.0000 C   0  0
   -3.5734    0.4050    0.0000 C   0  0
   -2.8604    0.8200    0.0000 C   0  0
   -2.8627    1.4800    0.0000 Br  0  0
   -4.2849   -0.8337    0.0000 C   0  0
   -4.2837   -1.4937    0.0000 O   0  0
   -5.0006   -0.4225    0.0000 N   0  0
   -5.7149   -0.8362    0.0000 C   0  0
   -6.4307   -0.4261    0.0000 C   0  0
   -7.1438   -0.8411    0.0000 C   0  0
   -7.1409   -1.6661    0.0000 C   0  0
   -7.7114   -1.9980    0.0000 C   0  0
   -6.4251   -2.0761    0.0000 C   0  0
   -6.4206   -2.9016    0.0000 N   0  0
   -5.7037   -3.3108    0.0000 C   0  0
   -5.6980   -4.1358    0.0000 N   0  0
   -4.9807   -4.5434    0.0000 C   0  0
   -4.2691   -4.1260    0.0000 C   0  0
   -4.2747   -3.3010    0.0000 C   0  0
   -4.9920   -2.8934    0.0000 N   0  0
   -3.5628   -2.8834    0.0000 C   0  0
   -2.8448   -3.2898    0.0000 C   0  0
   -2.1338   -2.8712    0.0000 C   0  0
   -2.1408   -2.0463    0.0000 C   0  0
   -2.8588   -1.6398    0.0000 N   0  0
   -3.5697   -2.0584    0.0000 C   0  0
   -5.7120   -1.6612    0.0000 C   0  0
   -0.7144   -0.4125    0.0000 C   0  0
    0.0000   -0.8250    0.0000 C   0  0
   -6.8954   -3.1790    0.0000 H   0  0
   -5.0015    0.1275    0.0000 H   0  0
  1  2  1  0
  2  3  1  0
  3  4  1  0
  4  5  1  0
  5  6  1  0
  5 37  1  0
  6  7  1  0
  7  8  2  0
  8  9  1  0
  9 10  2  0
 10 11  1  0
 10 14  1  0
 11 12  2  0
 12  7  1  0
 12 13  1  0
 14 15  2  0
 14 16  1  0
 16 17  1  0
 16 40  1  0
 17 18  2  0
 18 19  1  0
 19 20  2  0
 20 21  1  0
 20 22  1  0
 22 23  1  0
 22 36  2  0
 23 24  1  0
 23 39  1  0
 24 25  2  0
 25 26  1  0
 26 27  2  0
 27 28  1  0
 28 29  2  0
 28 30  1  0
 29 24  1  0
 30 31  2  0
 31 32  1  0
 32 33  2  0
 33 34  1  0
 34 35  2  0
 35 30  1  0
 36 17  1  0
 37 38  1  0
 38  2  1  0
M  END
> <CMPD_CHEMBLID>
CHEMBL383010

> <STANDARD_TYPE>
IC50

> <RELATION>
=

> <STANDARD_VALUE>
12

> <STANDARD_UNITS>
nM

> <Molecular_Weight>
572.4988

$$$$

  SciTegic11272012012D

 44 49  0  0  0  0            999 V2000
    4.1419   -3.2214    0.0000 C   0  0
    3.5703   -2.8914    0.0000 C   0  0
    2.8558   -3.3038    0.0000 C   0  0
    2.1414   -2.8913    0.0000 C   0  0
    2.1413   -2.0663    0.0000 C   0  0
    1.4273   -1.6521    0.0000 N   0  0
    1.4285   -0.8267    0.0000 C   0  0
    2.0006   -0.4977    0.0000 O   0  0
    0.7144   -0.4125    0.0000 C   0  0
    0.7144    0.4125    0.0000 C   0  0
    0.0000    0.8250    0.0000 C   0  0
   -0.7144    0.4125    0.0000 C   0  0
   -1.4986    0.6674    0.0000 C   0  0
   -1.9836    0.0000    0.0000 C   0  0
   -1.4986   -0.6674    0.0000 C   0  0
   -0.7144   -0.4125    0.0000 C   0  0
    0.0000   -0.8250    0.0000 C   0  0
   -1.7536    1.4524    0.0000 N   0  0
   -1.2506    2.1029    0.0000 C   0  0
   -1.5638    2.8661    0.0000 C   0  0
   -2.3814    2.9764    0.0000 N   0  0
   -2.6964    3.7394    0.0000 C   0  0
   -3.5146    3.8487    0.0000 C   0  0
   -3.8295    4.6117    0.0000 O   0  0
   -2.8857    2.3236    0.0000 C   0  0
   -2.5725    1.5603    0.0000 C   0  0
    2.8559   -1.6538    0.0000 C   0  0
    3.5703   -2.0664    0.0000 C   0  0
    4.2843   -1.6522    0.0000 N   0  0
    4.2832   -0.8268    0.0000 C   0  0
    4.9963   -0.4117    0.0000 N   0  0
    4.9934    0.4133    0.0000 C   0  0
    4.2775    0.8233    0.0000 C   0  0
    3.5644    0.4083    0.0000 C   0  0
    3.5673   -0.4167    0.0000 N   0  0
    2.8482    0.8186    0.0000 C   0  0
    2.8440    1.6436    0.0000 C   0  0
    2.1275    2.0525    0.0000 C   0  0
    1.4151    1.6364    0.0000 C   0  0
    1.4192    0.8114    0.0000 N   0  0
    2.1358    0.4025    0.0000 C   0  0
    4.7611   -1.9264    0.0000 H   0  0
   -4.3748    4.6845    0.0000 H   0  0
    0.9505   -1.9263    0.0000 H   0  0
  1  2  1  0
  2  3  2  0
  3  4  1  0
  4  5  2  0
  5  6  1  0
  5 27  1  0
  6  7  1  0
  6 44  1  0
  7  8  2  0
  7  9  1  0
  9 10  2  0
 10 11  1  0
 11 12  2  0
 12 13  1  0
 13 14  1  0
 13 18  1  0
 14 15  1  0
 15 16  1  0
 16 12  1  0
 16 17  2  0
 17  9  1  0
 18 19  1  0
 19 20  1  0
 20 21  1  0
 21 22  1  0
 21 25  1  0
 22 23  1  0
 23 24  1  0
 24 43  1  0
 25 26  1  0
 26 18  1  0
 27 28  2  0
 28  2  1  0
 28 29  1  0
 29 30  1  0
 29 42  1  0
 30 31  2  0
 31 32  1  0
 32 33  2  0
 33 34  1  0
 34 35  2  0
 34 36  1  0
 35 30  1  0
 36 37  2  0
 37 38  1  0
 38 39  2  0
 39 40  1  0
 40 41  2  0
 41 36  1  0
M  END
> <CMPD_CHEMBLID>
CHEMBL3690077

> <STANDARD_TYPE>
IC50

> <RELATION>
=

> <STANDARD_VALUE>
12

> <STANDARD_UNITS>
nM

> <Molecular_Weight>
549.666

$$$$

  SciTegic11272012012D

 44 48  0  0  0  0            999 V2000
    2.9642    1.8658    0.0000 C   0  0
    3.3548    1.3337    0.0000 N   0  0
    4.0108    1.4061    0.0000 C   0  0
    3.0238    0.5790    0.0000 C   0  0
    3.4388   -0.1340    0.0000 C   0  0
    2.8889   -0.7490    0.0000 C   0  0
    2.1444   -0.4100    0.0000 N   0  0
    1.4302   -0.8237    0.0000 C   0  0
    0.7144   -0.4125    0.0000 C   0  0
    0.7144    0.4125    0.0000 C   0  0
    0.0000    0.8250    0.0000 C   0  0
   -0.7144    0.4125    0.0000 C   0  0
   -0.7144   -0.4125    0.0000 C   0  0
    0.0000   -0.8250    0.0000 C   0  0
    0.0000   -1.6504    0.0000 C   0  0
   -0.5713   -1.9808    0.0000 F   0  0
    0.5717   -1.9803    0.0000 F   0  0
    0.0003   -2.3104    0.0000 F   0  0
   -1.4302    0.8237    0.0000 C   0  0
   -1.4313    1.4837    0.0000 O   0  0
   -2.1444    0.4100    0.0000 N   0  0
   -2.8602    0.8213    0.0000 C   0  0
   -3.5747    0.4088    0.0000 C   0  0
   -4.2892    0.8213    0.0000 C   0  0
   -4.2892    1.6463    0.0000 C   0  0
   -4.8608    1.9763    0.0000 C   0  0
   -3.5747    2.0588    0.0000 C   0  0
   -3.5731    2.8843    0.0000 N   0  0
   -2.8576    3.2960    0.0000 C   0  0
   -2.8547    4.1210    0.0000 N   0  0
   -2.1388    4.5310    0.0000 C   0  0
   -1.4258    4.1161    0.0000 C   0  0
   -1.4286    3.2911    0.0000 C   0  0
   -2.1445    2.8810    0.0000 N   0  0
   -0.7152    2.8759    0.0000 C   0  0
    0.0014    3.2848    0.0000 C   0  0
    0.7138    2.8687    0.0000 N   0  0
    0.7096    2.0437    0.0000 C   0  0
   -0.0069    1.6348    0.0000 N   0  0
   -0.7193    2.0509    0.0000 C   0  0
   -2.8602    1.6463    0.0000 C   0  0
    2.2174    0.4047    0.0000 C   0  0
   -4.0489    3.1600    0.0000 H   0  0
   -2.1435   -0.1400    0.0000 H   0  0
  1  2  1  0
  2  3  1  0
  2  4  1  0
  4  5  1  0
  5  6  1  0
  6  7  1  0
  7  8  1  0
  7 42  1  0
  8  9  1  0
  9 10  2  0
 10 11  1  0
 11 12  2  0
 12 13  1  0
 12 19  1  0
 13 14  2  0
 14  9  1  0
 14 15  1  0
 15 16  1  0
 15 17  1  0
 15 18  1  0
 19 20  2  0
 19 21  1  0
 21 22  1  0
 21 44  1  0
 22 23  2  0
 23 24  1  0
 24 25  2  0
 25 26  1  0
 25 27  1  0
 27 28  1  0
 27 41  2  0
 28 29  1  0
 28 43  1  0
 29 30  2  0
 30 31  1  0
 31 32  2  0
 32 33  1  0
 33 34  2  0
 33 35  1  0
 34 29  1  0
 35 36  2  0
 36 37  1  0
 37 38  2  0
 38 39  1  0
 39 40  2  0
 40 35  1  0
 41 22  1  0
 42  4  1  0
M  END
> <CMPD_CHEMBLID>
CHEMBL536073

> <STANDARD_TYPE>
IC50

> <RELATION>
=

> <STANDARD_VALUE>
12

> <STANDARD_UNITS>
nM

> <Molecular_Weight>
576.61535

$$$$

  SciTegic11272012012D

 45 49  0  0  0  0            999 V2000
    4.5442   -2.4304    0.0000 C   0  0
    3.8842   -2.4294    0.0000 O   0  0
    3.4700   -3.1435    0.0000 C   0  0
    3.8826   -3.8579    0.0000 C   0  0
    3.4700   -4.5724    0.0000 C   0  0
    2.6450   -4.5724    0.0000 C   0  0
    2.2325   -3.8580    0.0000 C   0  0
    2.6450   -3.1435    0.0000 C   0  0
    2.2308   -2.4294    0.0000 N   0  0
    1.4053   -2.4306    0.0000 C   0  0
    1.0763   -3.0028    0.0000 O   0  0
    0.9918   -1.7178    0.0000 C   0  0
    1.3273   -0.9642    0.0000 C   0  0
    0.7145   -0.4125    0.0000 C   0  0
    0.7145    0.4125    0.0000 C   0  0
    0.0000    0.8250    0.0000 C   0  0
   -0.7145    0.4125    0.0000 C   0  0
   -0.7145   -0.4125    0.0000 C   0  0
    0.0000   -0.8250    0.0000 C   0  0
    0.1713   -1.6316    0.0000 N   0  0
   -0.2704   -2.1220    0.0000 C   0  0
    3.8828   -5.2872    0.0000 C   0  0
    3.5402   -6.0301    0.0000 C   0  0
    4.1526   -6.5829    0.0000 S   0  0
    4.8672   -6.1715    0.0000 C   0  0
    5.6514   -6.4275    0.0000 C   0  0
    5.8236   -7.2348    0.0000 C   0  0
    6.6087   -7.4899    0.0000 C   0  0
    6.7809   -8.2972    0.0000 C   0  0
    6.2905   -8.7391    0.0000 O   0  0
    7.5659   -8.5523    0.0000 N   0  0
    7.7381   -9.3596    0.0000 C   0  0
    8.5232   -9.6146    0.0000 C   0  0
    8.6953  -10.4220    0.0000 N   0  0
    9.3231  -10.6259    0.0000 C   0  0
    8.2050  -10.8637    0.0000 C   0  0
    6.2653   -5.8764    0.0000 C   0  0
    6.0949   -5.0691    0.0000 N   0  0
    5.3106   -4.8131    0.0000 C   0  0
    5.1418   -4.0051    0.0000 N   0  0
    4.6967   -5.3643    0.0000 C   0  0
    5.5515   -3.6382    0.0000 H   0  0
    4.6192   -3.8335    0.0000 H   0  0
    7.9745   -8.1841    0.0000 H   0  0
    2.5050   -1.9526    0.0000 H   0  0
  1  2  1  0
  2  3  1  0
  3  4  2  0
  4  5  1  0
  5  6  2  0
  5 22  1  0
  6  7  1  0
  7  8  2  0
  8  3  1  0
  8  9  1  0
  9 10  1  0
  9 45  1  0
 10 11  2  0
 10 12  1  0
 12 13  2  0
 13 14  1  0
 14 15  2  0
 15 16  1  0
 16 17  2  0
 17 18  1  0
 18 19  2  0
 19 14  1  0
 19 20  1  0
 20 12  1  0
 20 21  1  0
 22 23  2  0
 23 24  1  0
 24 25  1  0
 25 26  2  0
 26 27  1  0
 26 37  1  0
 27 28  2  0
 28 29  1  0
 29 30  2  0
 29 31  1  0
 31 32  1  0
 31 44  1  0
 32 33  1  0
 33 34  1  0
 34 35  1  0
 34 36  1  0
 37 38  2  0
 38 39  1  0
 39 40  1  0
 39 41  2  0
 40 42  1  0
 40 43  1  0
 41 22  1  0
 41 25  1  0
M  END
> <CMPD_CHEMBLID>
CHEMBL1989267

> <STANDARD_TYPE>
Ki

> <RELATION>
=

> <STANDARD_VALUE>
12.59

> <STANDARD_UNITS>
nM

> <Molecular_Weight>
568.68918

$$$$

  SciTegic11272012012D

 41 45  0  0  0  0            999 V2000
    7.8486    4.3779    0.0000 C   0  0
    7.8509    3.7179    0.0000 N   0  0
    8.5668    3.3079    0.0000 C   0  0
    8.5697    2.4829    0.0000 C   0  0
    7.8566    2.0679    0.0000 N   0  0
    7.8578    1.2424    0.0000 C   0  0
    7.1438    0.8282    0.0000 C   0  0
    6.4293    1.2407    0.0000 C   0  0
    5.7149    0.8282    0.0000 C   0  0
    5.7148    0.0032    0.0000 C   0  0
    5.0008   -0.4110    0.0000 N   0  0
    5.0020   -1.2365    0.0000 C   0  0
    5.5742   -1.5655    0.0000 O   0  0
    4.2880   -1.6507    0.0000 C   0  0
    4.2880   -2.4757    0.0000 C   0  0
    3.5735   -2.8882    0.0000 C   0  0
    2.8591   -2.4757    0.0000 C   0  0
    2.2875   -2.8057    0.0000 C   0  0
    2.8591   -1.6507    0.0000 C   0  0
    3.5735   -1.2382    0.0000 C   0  0
    2.1442   -1.2379    0.0000 C   0  0
    1.4293   -0.8252    0.0000 C   0  0
    0.7144   -0.4125    0.0000 C   0  0
    0.7144    0.4125    0.0000 C   0  0
    0.0000    0.8250    0.0000 C   0  0
   -0.7144    0.4125    0.0000 C   0  0
   -1.4986    0.6674    0.0000 N   0  0
   -1.9836    0.0000    0.0000 N   0  0
   -1.4986   -0.6674    0.0000 C   0  0
   -0.7144   -0.4125    0.0000 C   0  0
    0.0000   -0.8250    0.0000 C   0  0
    6.4294   -0.4093    0.0000 C   0  0
    7.1438    0.0032    0.0000 C   0  0
    7.8587   -0.4095    0.0000 C   0  0
    7.8592   -1.0695    0.0000 F   0  0
    8.4302   -0.0793    0.0000 F   0  0
    8.4305   -0.7392    0.0000 F   0  0
    7.1407    2.4780    0.0000 C   0  0
    7.1378    3.3030    0.0000 C   0  0
   -1.6685    1.1905    0.0000 H   0  0
    4.5241   -0.1368    0.0000 H   0  0
  1  2  1  0
  2  3  1  0
  3  4  1  0
  4  5  1  0
  5  6  1  0
  5 38  1  0
  6  7  1  0
  7  8  2  0
  8  9  1  0
  9 10  2  0
 10 11  1  0
 10 32  1  0
 11 12  1  0
 11 41  1  0
 12 13  2  0
 12 14  1  0
 14 15  2  0
 15 16  1  0
 16 17  2  0
 17 18  1  0
 17 19  1  0
 19 20  2  0
 19 21  1  0
 20 14  1  0
 21 22  3  0
 22 23  1  0
 23 24  2  0
 24 25  1  0
 25 26  2  0
 26 27  1  0
 27 28  1  0
 27 40  1  0
 28 29  2  0
 29 30  1  0
 30 26  1  0
 30 31  2  0
 31 23  1  0
 32 33  2  0
 33  7  1  0
 33 34  1  0
 34 35  1  0
 34 36  1  0
 34 37  1  0
 38 39  1  0
 39  2  1  0
M  END
> <CMPD_CHEMBLID>
CHEMBL2316579

> <STANDARD_TYPE>
IC50

> <RELATION>
=

> <STANDARD_VALUE>
12.7

> <STANDARD_UNITS>
nM

> <Molecular_Weight>
531.57143

$$$$

  SciTegic11272012012D

 39 43  0  0  0  0            999 V2000
    1.2861   -0.7425    0.0000 C   0  0
    0.7144   -0.4125    0.0000 N   0  0
    0.7144    0.4125    0.0000 C   0  0
    0.0000    0.8250    0.0000 C   0  0
   -0.7144    0.4125    0.0000 N   0  0
   -1.4302    0.8237    0.0000 C   0  0
   -2.1444    0.4100    0.0000 C   0  0
   -2.8604    0.8200    0.0000 C   0  0
   -3.5734    0.4050    0.0000 C   0  0
   -3.5706   -0.4200    0.0000 C   0  0
   -2.8546   -0.8300    0.0000 C   0  0
   -2.1416   -0.4150    0.0000 C   0  0
   -4.2832   -0.8367    0.0000 C   0  0
   -4.8564   -0.5096    0.0000 O   0  0
   -4.2791   -1.6621    0.0000 N   0  0
   -4.9917   -2.0788    0.0000 C   0  0
   -4.9889   -2.9038    0.0000 C   0  0
   -5.7019   -3.3187    0.0000 C   0  0
   -6.4177   -2.9087    0.0000 C   0  0
   -6.9882   -3.2407    0.0000 C   0  0
   -6.4207   -2.0837    0.0000 C   0  0
   -7.1361   -1.6720    0.0000 N   0  0
   -7.1378   -0.8466    0.0000 C   0  0
   -7.8522   -0.4341    0.0000 N   0  0
   -7.8523    0.3909    0.0000 C   0  0
   -7.1379    0.8034    0.0000 C   0  0
   -6.4234    0.3910    0.0000 C   0  0
   -6.4234   -0.4340    0.0000 N   0  0
   -5.7085    0.8037    0.0000 C   0  0
   -5.7072    1.6287    0.0000 C   0  0
   -4.9921    2.0401    0.0000 C   0  0
   -4.2783    1.6265    0.0000 C   0  0
   -4.2796    0.8015    0.0000 N   0  0
   -4.9947    0.3901    0.0000 C   0  0
   -5.7076   -1.6687    0.0000 C   0  0
   -0.7144   -0.4125    0.0000 C   0  0
    0.0000   -0.8250    0.0000 C   0  0
   -7.6120   -1.9479    0.0000 H   0  0
   -3.8014   -1.9346    0.0000 H   0  0
  1  2  1  0
  2  3  1  0
  3  4  1  0
  4  5  1  0
  5  6  1  0
  5 36  1  0
  6  7  1  0
  7  8  2  0
  8  9  1  0
  9 10  2  0
 10 11  1  0
 10 13  1  0
 11 12  2  0
 12  7  1  0
 13 14  2  0
 13 15  1  0
 15 16  1  0
 15 39  1  0
 16 17  2  0
 17 18  1  0
 18 19  2  0
 19 20  1  0
 19 21  1  0
 21 22  1  0
 21 35  2  0
 22 23  1  0
 22 38  1  0
 23 24  2  0
 24 25  1  0
 25 26  2  0
 26 27  1  0
 27 28  2  0
 27 29  1  0
 28 23  1  0
 29 30  2  0
 30 31  1  0
 31 32  2  0
 32 33  1  0
 33 34  2  0
 34 29  1  0
 35 16  1  0
 36 37  1  0
 37  2  1  0
M  END
> <CMPD_CHEMBLID>
CHEMBL941

> <STANDARD_TYPE>
Ki

> <RELATION>
=

> <STANDARD_VALUE>
13

> <STANDARD_UNITS>
nM

> <Molecular_Weight>
493.60274

$$$$

  SciTegic11272012012D

 22 24  0  0  0  0            999 V2000
    1.9982   -1.9833    0.0000 C   0  0
    1.4273   -1.6522    0.0000 C   0  0
    0.8552   -1.9812    0.0000 C   0  0
    1.4261   -2.3122    0.0000 C   0  0
    1.4285   -0.8267    0.0000 O   0  0
    0.7145   -0.4125    0.0000 C   0  0
    0.7145    0.4125    0.0000 C   0  0
    0.0000    0.8250    0.0000 C   0  0
   -0.7145    0.4125    0.0000 C   0  0
   -1.4290    0.8250    0.0000 C   0  0
   -2.1435    0.4125    0.0000 C   0  0
   -2.8592    0.8238    0.0000 N   0  0
   -3.5735    0.4100    0.0000 C   0  0
   -3.5723   -0.2500    0.0000 O   0  0
   -4.2892    0.8213    0.0000 C   0  0
   -5.0707    0.7961    0.0000 C   0  0
   -4.6582    1.5106    0.0000 C   0  0
   -2.1435   -0.4125    0.0000 N   0  0
   -1.4290   -0.8250    0.0000 C   0  0
   -0.7145   -0.4125    0.0000 C   0  0
    0.0000   -0.8250    0.0000 C   0  0
   -2.8602    1.3738    0.0000 H   0  0
  1  2  1  0
  2  3  1  0
  2  4  1  0
  2  5  1  0
  5  6  1  0
  6  7  2  0
  7  8  1  0
  8  9  2  0
  9 10  1  0
 10 11  2  0
 11 12  1  0
 11 18  1  0
 12 13  1  0
 12 22  1  0
 13 14  2  0
 13 15  1  0
 15 16  1  0
 16 17  1  0
 17 15  1  0
 18 19  2  0
 19 20  1  0
 20  9  1  0
 20 21  2  0
 21  6  1  0
M  END
> <CMPD_CHEMBLID>
CHEMBL3685185

> <STANDARD_TYPE>
Ki

> <RELATION>
=

> <STANDARD_VALUE>
13

> <STANDARD_UNITS>
nM

> <Molecular_Weight>
284.3529

$$$$

  SciTegic11272012012D

 43 47  0  0  0  0            999 V2000
   -2.4959   -2.6711    0.0000 C   0  0
   -2.2921   -3.2988    0.0000 C   0  0
   -2.8442   -3.9117    0.0000 C   0  0
   -2.5894   -4.6964    0.0000 C   0  0
   -1.7825   -4.8681    0.0000 C   0  0
   -1.5260   -5.6527    0.0000 N   0  0
   -0.7184   -5.8233    0.0000 C   0  0
   -0.2775   -5.3322    0.0000 O   0  0
   -0.4618   -6.6079    0.0000 C   0  0
    0.3452   -6.7796    0.0000 C   0  0
    0.5999   -7.5643    0.0000 C   0  0
    0.0478   -8.1772    0.0000 C   0  0
    0.3044   -8.9618    0.0000 C   0  0
    1.1120   -9.1325    0.0000 N   0  0
    1.3695   -9.9162    0.0000 C   0  0
    2.1771  -10.0851    0.0000 C   0  0
    2.7271   -9.4702    0.0000 N   0  0
    3.5354   -9.6375    0.0000 C   0  0
    4.0849   -9.0215    0.0000 C   0  0
    4.8932   -9.1888    0.0000 O   0  0
    2.4696   -8.6864    0.0000 C   0  0
    1.6621   -8.5175    0.0000 C   0  0
   -0.7591   -8.0056    0.0000 C   0  0
   -1.0139   -7.2210    0.0000 C   0  0
   -1.3116   -8.6189    0.0000 C   0  0
   -1.1081   -9.2468    0.0000 F   0  0
   -1.9571   -8.4814    0.0000 F   0  0
   -1.7535   -9.1091    0.0000 F   0  0
   -1.2303   -4.2551    0.0000 C   0  0
   -1.4851   -3.4705    0.0000 C   0  0
   -0.9327   -2.8571    0.0000 C   0  0
   -0.3802   -2.2438    0.0000 C   0  0
    0.1713   -1.6316    0.0000 C   0  0
    0.9918   -1.7178    0.0000 C   0  0
    1.3273   -0.9641    0.0000 N   0  0
    0.7144   -0.4125    0.0000 C   0  0
    0.7144    0.4125    0.0000 C   0  0
    0.0000    0.8250    0.0000 C   0  0
   -0.7144    0.4125    0.0000 C   0  0
   -0.7144   -0.4125    0.0000 C   0  0
    0.0000   -0.8250    0.0000 N   0  0
    5.2593   -8.7783    0.0000 H   0  0
   -1.8934   -6.0620    0.0000 H   0  0
  1  2  1  0
  2  3  2  0
  3  4  1  0
  4  5  2  0
  5  6  1  0
  5 29  1  0
  6  7  1  0
  6 43  1  0
  7  8  2  0
  7  9  1  0
  9 10  2  0
 10 11  1  0
 11 12  2  0
 12 13  1  0
 12 23  1  0
 13 14  1  0
 14 15  1  0
 15 16  1  0
 16 17  1  0
 17 18  1  0
 17 21  1  0
 18 19  1  0
 19 20  1  0
 20 42  1  0
 21 22  1  0
 22 14  1  0
 23 24  2  0
 23 25  1  0
 24  9  1  0
 25 26  1  0
 25 27  1  0
 25 28  1  0
 29 30  2  0
 30  2  1  0
 30 31  1  0
 31 32  3  0
 32 33  1  0
 33 34  2  0
 34 35  1  0
 35 36  2  0
 36 37  1  0
 37 38  2  0
 38 39  1  0
 39 40  2  0
 40 41  1  0
 41 33  1  0
 41 36  1  0
M  END
> <CMPD_CHEMBLID>
CHEMBL2324931

> <STANDARD_TYPE>
IC50

> <RELATION>
=

> <STANDARD_VALUE>
13

> <STANDARD_UNITS>
nM

> <Molecular_Weight>
561.59741

$$$$

  SciTegic11272012012D

 41 45  0  0  0  0            999 V2000
   -7.4580    1.0322    0.0000 C   0  0
   -7.5489    0.3785    0.0000 N   0  0
   -8.3345    0.1265    0.0000 C   0  0
   -8.6272   -0.6449    0.0000 C   0  0
   -8.2067   -1.3546    0.0000 C   0  0
   -7.3868   -1.4771    0.0000 N   0  0
   -7.1330   -2.2625    0.0000 C   0  0
   -6.3260   -2.4360    0.0000 C   0  0
   -5.7738   -1.8230    0.0000 C   0  0
   -4.9669   -1.9947    0.0000 C   0  0
   -4.7120   -2.7794    0.0000 C   0  0
   -3.9050   -2.9528    0.0000 N   0  0
   -3.6512   -3.7383    0.0000 C   0  0
   -4.0938   -4.2279    0.0000 O   0  0
   -2.8442   -3.9117    0.0000 C   0  0
   -2.5894   -4.6964    0.0000 C   0  0
   -1.7825   -4.8681    0.0000 C   0  0
   -1.2303   -4.2551    0.0000 C   0  0
   -0.5848   -4.3925    0.0000 C   0  0
   -1.4851   -3.4705    0.0000 C   0  0
   -2.2921   -3.2988    0.0000 C   0  0
   -0.9327   -2.8571    0.0000 C   0  0
   -0.3802   -2.2438    0.0000 C   0  0
    0.1713   -1.6316    0.0000 C   0  0
    0.9918   -1.7178    0.0000 C   0  0
    1.3273   -0.9641    0.0000 N   0  0
    0.7144   -0.4125    0.0000 C   0  0
    0.7144    0.4125    0.0000 C   0  0
    0.0000    0.8250    0.0000 C   0  0
   -0.7144    0.4125    0.0000 C   0  0
   -0.7144   -0.4125    0.0000 C   0  0
    0.0000   -0.8250    0.0000 N   0  0
   -5.2643   -3.3924    0.0000 C   0  0
   -6.0712   -3.2207    0.0000 C   0  0
   -6.6237   -3.8340    0.0000 C   0  0
   -6.4203   -4.4618    0.0000 F   0  0
   -7.2692   -3.6964    0.0000 F   0  0
   -7.0656   -4.3241    0.0000 F   0  0
   -6.7911   -0.9004    0.0000 C   0  0
   -6.8621   -0.0785    0.0000 C   0  0
   -3.5362   -2.5448    0.0000 H   0  0
  1  2  1  0
  2  3  1  0
  3  4  1  0
  4  5  1  0
  5  6  1  0
  6  7  1  0
  6 39  1  0
  7  8  1  0
  8  9  2  0
  9 10  1  0
 10 11  2  0
 11 12  1  0
 11 33  1  0
 12 13  1  0
 12 41  1  0
 13 14  2  0
 13 15  1  0
 15 16  2  0
 16 17  1  0
 17 18  2  0
 18 19  1  0
 18 20  1  0
 20 21  2  0
 20 22  1  0
 21 15  1  0
 22 23  3  0
 23 24  1  0
 24 25  2  0
 25 26  1  0
 26 27  2  0
 27 28  1  0
 28 29  2  0
 29 30  1  0
 30 31  2  0
 31 32  1  0
 32 24  1  0
 32 27  1  0
 33 34  2  0
 34  8  1  0
 34 35  1  0
 35 36  1  0
 35 37  1  0
 35 38  1  0
 39 40  1  0
 40  2  1  0
M  END
> <CMPD_CHEMBLID>
CHEMBL1169705

> <STANDARD_TYPE>
IC50

> <RELATION>
=

> <STANDARD_VALUE>
13

> <STANDARD_UNITS>
nM

> <Molecular_Weight>
545.59801

$$$$

  SciTegic11272012012D

 42 47  0  0  0  0            999 V2000
    0.2263   -4.5662    0.0000 C   0  0
   -0.4193   -4.4289    0.0000 C   0  0
   -0.9714   -5.0419    0.0000 C   0  0
   -1.7784   -4.8702    0.0000 C   0  0
   -2.0332   -4.0856    0.0000 C   0  0
   -1.4810   -3.4726    0.0000 C   0  0
   -0.6741   -3.6442    0.0000 C   0  0
   -0.1229   -3.0297    0.0000 C   0  0
   -0.3789   -2.2450    0.0000 C   0  0
    0.1713   -1.6316    0.0000 N   0  0
    0.9918   -1.7178    0.0000 C   0  0
    1.3273   -0.9641    0.0000 N   0  0
    0.7144   -0.4125    0.0000 C   0  0
    0.7144    0.4125    0.0000 C   0  0
    1.4285    0.8267    0.0000 N   0  0
    1.4273    1.6521    0.0000 C   0  0
    1.8374    2.3178    0.0000 C   0  0
    1.0124    2.3149    0.0000 C   0  0
    0.0000    0.8250    0.0000 N   0  0
   -0.7144    0.4125    0.0000 C   0  0
   -0.7144   -0.4125    0.0000 N   0  0
    0.0000   -0.8250    0.0000 C   0  0
   -2.8402   -3.9121    0.0000 C   0  0
   -3.2828   -4.4018    0.0000 O   0  0
   -3.0941   -3.1267    0.0000 N   0  0
   -3.9011   -2.9533    0.0000 C   0  0
   -4.1560   -2.1686    0.0000 C   0  0
   -4.9629   -1.9969    0.0000 C   0  0
   -5.5150   -2.6100    0.0000 C   0  0
   -5.2602   -3.3946    0.0000 C   0  0
   -4.4533   -3.5663    0.0000 C   0  0
   -5.8127   -4.0079    0.0000 C   0  0
   -6.4583   -3.8710    0.0000 F   0  0
   -5.6086   -4.6356    0.0000 F   0  0
   -6.2541   -4.4985    0.0000 F   0  0
   -5.2178   -1.2119    0.0000 N   0  0
   -4.7301   -0.5552    0.0000 C   0  0
   -5.2160    0.1116    0.0000 C   0  0
   -6.0002   -0.1445    0.0000 N   0  0
   -5.9991   -0.9695    0.0000 C   0  0
   -2.7252   -2.7186    0.0000 H   0  0
    1.9052    0.5525    0.0000 H   0  0
  1  2  1  0
  2  3  2  0
  3  4  1  0
  4  5  2  0
  5  6  1  0
  5 23  1  0
  6  7  2  0
  7  2  1  0
  7  8  1  0
  8  9  2  0
  9 10  1  0
 10 11  1  0
 11 12  2  0
 12 13  1  0
 13 14  2  0
 14 15  1  0
 14 19  1  0
 15 16  1  0
 15 42  1  0
 16 17  1  0
 17 18  1  0
 18 16  1  0
 19 20  2  0
 20 21  1  0
 21 22  2  0
 22 10  1  0
 22 13  1  0
 23 24  2  0
 23 25  1  0
 25 26  1  0
 25 41  1  0
 26 27  2  0
 27 28  1  0
 28 29  2  0
 28 36  1  0
 29 30  1  0
 30 31  2  0
 30 32  1  0
 31 26  1  0
 32 33  1  0
 32 34  1  0
 32 35  1  0
 36 37  1  0
 37 38  2  0
 38 39  1  0
 39 40  2  0
 40 36  1  0
M  END
> <CMPD_CHEMBLID>
CHEMBL559826

> <STANDARD_TYPE>
IC50

> <RELATION>
=

> <STANDARD_VALUE>
13

> <STANDARD_UNITS>
nM

> <Molecular_Weight>
544.53043

$$$$

  SciTegic11272012012D

 25 28  0  0  0  0            999 V2000
    1.4275   -1.6521    0.0000 O   0  0
    1.4288   -0.8267    0.0000 C   0  0
    1.4103   -0.0131    0.0000 C   0  0
    2.1254    0.3983    0.0000 C   0  0
    2.8392   -0.0155    0.0000 C   0  0
    2.8378   -0.8405    0.0000 C   0  0
    2.1227   -1.2517    0.0000 C   0  0
    0.7145   -0.4125    0.0000 C   0  0
    0.7145    0.4125    0.0000 C   0  0
    0.0000    0.8250    0.0000 C   0  0
   -0.7145    0.4125    0.0000 C   0  0
   -1.4290    0.8250    0.0000 C   0  0
   -2.1434    0.4125    0.0000 C   0  0
   -2.8591    0.8237    0.0000 N   0  0
   -3.5734    0.4100    0.0000 C   0  0
   -3.5723   -0.2500    0.0000 O   0  0
   -4.2891    0.8213    0.0000 C   0  0
   -5.0706    0.7961    0.0000 C   0  0
   -4.6581    1.5106    0.0000 C   0  0
   -2.1434   -0.4125    0.0000 N   0  0
   -1.4290   -0.8250    0.0000 C   0  0
   -0.7145   -0.4125    0.0000 C   0  0
    0.0000   -0.8250    0.0000 N   0  0
   -2.8601    1.3737    0.0000 H   0  0
    1.9033   -1.9281    0.0000 H   0  0
  1  2  1  0
  1 25  1  0
  2  3  1  0
  2  8  1  0
  3  4  1  0
  4  5  1  0
  5  6  1  0
  6  7  1  0
  7  2  1  0
  8  9  2  0
  9 10  1  0
 10 11  2  0
 11 12  1  0
 12 13  2  0
 13 14  1  0
 13 20  1  0
 14 15  1  0
 14 24  1  0
 15 16  2  0
 15 17  1  0
 17 18  1  0
 18 19  1  0
 19 17  1  0
 20 21  2  0
 21 22  1  0
 22 11  1  0
 22 23  2  0
 23  8  1  0
M  END
> <CMPD_CHEMBLID>
CHEMBL3689688

> <STANDARD_TYPE>
Ki

> <RELATION>
=

> <STANDARD_VALUE>
13

> <STANDARD_UNITS>
nM

> <Molecular_Weight>
311.37824

$$$$

  SciTegic11272012012D

 24 27  0  0  0  0            999 V2000
    0.8551   -1.9812    0.0000 O   0  0
    1.4273   -1.6521    0.0000 C   0  0
    1.4285   -0.8267    0.0000 N   0  0
    0.7144   -0.4125    0.0000 C   0  0
    0.7144    0.4125    0.0000 C   0  0
    0.0000    0.8250    0.0000 C   0  0
    0.0000    1.6500    0.0000 C   0  0
   -0.7145    2.0625    0.0000 C   0  0
   -1.4290    1.6500    0.0000 C   0  0
   -2.1447    2.0612    0.0000 S   0  0
   -2.8590    1.6475    0.0000 C   0  0
   -3.5749    2.0575    0.0000 C   0  0
   -4.2879    1.6425    0.0000 C   0  0
   -4.2851    0.8175    0.0000 C   0  0
   -3.5692    0.4075    0.0000 C   0  0
   -2.8561    0.8225    0.0000 C   0  0
   -1.4290    0.8250    0.0000 C   0  0
   -0.7144    0.4125    0.0000 C   0  0
   -0.7144   -0.4125    0.0000 C   0  0
    0.0000   -0.8250    0.0000 N   0  0
    2.1413   -2.0663    0.0000 C   0  0
    2.5103   -2.7557    0.0000 C   0  0
    2.9228   -2.0412    0.0000 C   0  0
    1.9053   -0.5525    0.0000 H   0  0
  1  2  2  0
  2  3  1  0
  2 21  1  0
  3  4  1  0
  3 24  1  0
  4  5  2  0
  5  6  1  0
  6  7  2  0
  7  8  1  0
  8  9  2  0
  9 10  1  0
  9 17  1  0
 10 11  1  0
 11 12  2  0
 12 13  1  0
 13 14  2  0
 14 15  1  0
 15 16  2  0
 16 11  1  0
 17 18  2  0
 18  6  1  0
 18 19  1  0
 19 20  2  0
 20  4  1  0
 21 22  1  0
 22 23  1  0
 23 21  1  0
M  END
> <CMPD_CHEMBLID>
CHEMBL3685083

> <STANDARD_TYPE>
Ki

> <RELATION>
=

> <STANDARD_VALUE>
13

> <STANDARD_UNITS>
nM

> <Molecular_Weight>
320.40814

$$$$

  SciTegic11272012012D

 29 32  0  0  0  0            999 V2000
    1.2861   -0.7425    0.0000 C   0  0
    0.7144   -0.4125    0.0000 N   0  0
    0.7144    0.4125    0.0000 C   0  0
    1.2861    0.7425    0.0000 O   0  0
    0.0000    0.8250    0.0000 C   0  0
   -0.7144    0.4125    0.0000 C   0  0
   -0.7144   -0.4125    0.0000 C   0  0
   -1.4290   -0.8250    0.0000 C   0  0
   -1.4290   -1.6500    0.0000 N   0  0
   -0.7144   -2.0625    0.0000 C   0  0
   -0.7127   -2.8879    0.0000 N   0  0
    0.0027   -3.2997    0.0000 C   0  0
    0.0056   -4.1247    0.0000 C   0  0
    0.7215   -4.5347    0.0000 C   0  0
    1.4345   -4.1197    0.0000 C   0  0
    2.0072   -4.4477    0.0000 I   0  0
    1.4317   -3.2947    0.0000 C   0  0
    0.7158   -2.8847    0.0000 C   0  0
    0.0000   -1.6500    0.0000 N   0  0
    0.0000   -0.8250    0.0000 C   0  0
    0.0000    1.6504    0.0000 C   0  0
    0.7138    2.0641    0.0000 C   0  0
    1.2859    1.7350    0.0000 Cl  0  0
    0.7125    2.8891    0.0000 C   0  0
   -0.0026    3.3005    0.0000 C   0  0
   -0.7164    2.8868    0.0000 C   0  0
   -0.7151    2.0618    0.0000 C   0  0
   -1.2862    1.7310    0.0000 Cl  0  0
   -1.1886   -3.1638    0.0000 H   0  0
  1  2  1  0
  2  3  1  0
  3  4  2  0
  3  5  1  0
  5  6  2  0
  5 21  1  0
  6  7  1  0
  7  8  2  0
  8  9  1  0
  9 10  2  0
 10 11  1  0
 10 19  1  0
 11 12  1  0
 11 29  1  0
 12 13  2  0
 13 14  1  0
 14 15  2  0
 15 16  1  0
 15 17  1  0
 17 18  2  0
 18 12  1  0
 19 20  2  0
 20  2  1  0
 20  7  1  0
 21 22  2  0
 22 23  1  0
 22 24  1  0
 24 25  2  0
 25 26  1  0
 26 27  2  0
 27 21  1  0
 27 28  1  0
M  END
> <CMPD_CHEMBLID>
CHEMBL570175

> <STANDARD_TYPE>
IC50

> <RELATION>
=

> <STANDARD_VALUE>
13

> <STANDARD_UNITS>
nM

> <Molecular_Weight>
523.15389

$$$$

  SciTegic11272012012D

 23 26  0  0  0  0            999 V2000
    3.3808   -1.0309    0.0000 C   0  0
    2.7243   -1.0988    0.0000 C   0  0
    2.1732   -0.4848    0.0000 N   0  0
    1.4293   -0.8252    0.0000 C   0  0
    1.5039   -1.6399    0.0000 C   0  0
    2.3106   -1.8126    0.0000 S   0  0
    0.7145   -0.4125    0.0000 C   0  0
    0.7145    0.4125    0.0000 C   0  0
    0.0000    0.8250    0.0000 C   0  0
   -0.7145    0.4125    0.0000 C   0  0
   -1.4290    0.8250    0.0000 C   0  0
   -2.1435    0.4125    0.0000 C   0  0
   -2.8592    0.8238    0.0000 N   0  0
   -3.5735    0.4100    0.0000 C   0  0
   -3.5723   -0.2500    0.0000 O   0  0
   -4.2892    0.8213    0.0000 C   0  0
   -5.0707    0.7961    0.0000 C   0  0
   -4.6582    1.5106    0.0000 C   0  0
   -2.1435   -0.4125    0.0000 N   0  0
   -1.4290   -0.8250    0.0000 C   0  0
   -0.7145   -0.4125    0.0000 C   0  0
    0.0000   -0.8250    0.0000 C   0  0
   -2.8602    1.3738    0.0000 H   0  0
  1  2  1  0
  2  3  2  0
  3  4  1  0
  4  5  2  0
  4  7  1  0
  5  6  1  0
  6  2  1  0
  7  8  2  0
  8  9  1  0
  9 10  2  0
 10 11  1  0
 11 12  2  0
 12 13  1  0
 12 19  1  0
 13 14  1  0
 13 23  1  0
 14 15  2  0
 14 16  1  0
 16 17  1  0
 17 18  1  0
 18 16  1  0
 19 20  2  0
 20 21  1  0
 21 10  1  0
 21 22  2  0
 22  7  1  0
M  END
> <CMPD_CHEMBLID>
CHEMBL3685061

> <STANDARD_TYPE>
Ki

> <RELATION>
=

> <STANDARD_VALUE>
13

> <STANDARD_UNITS>
nM

> <Molecular_Weight>
309.3855

$$$$

  SciTegic11272012012D

 40 44  0  0  0  0            999 V2000
   -2.4959   -2.6711    0.0000 C   0  0
   -2.2921   -3.2988    0.0000 C   0  0
   -2.8442   -3.9118    0.0000 C   0  0
   -2.5894   -4.6964    0.0000 C   0  0
   -1.7825   -4.8681    0.0000 C   0  0
   -1.2303   -4.2551    0.0000 C   0  0
   -1.4851   -3.4705    0.0000 C   0  0
   -0.9327   -2.8571    0.0000 C   0  0
   -0.3802   -2.2438    0.0000 C   0  0
    0.1713   -1.6316    0.0000 C   0  0
    0.9918   -1.7178    0.0000 C   0  0
    1.3273   -0.9641    0.0000 N   0  0
    0.7144   -0.4125    0.0000 C   0  0
    0.7144    0.4125    0.0000 C   0  0
    0.0000    0.8250    0.0000 C   0  0
   -0.7144    0.4125    0.0000 C   0  0
   -0.7144   -0.4125    0.0000 C   0  0
    0.0000   -0.8250    0.0000 N   0  0
   -1.5260   -5.6527    0.0000 C   0  0
   -1.9668   -6.1439    0.0000 O   0  0
   -0.7184   -5.8233    0.0000 N   0  0
   -0.4618   -6.6079    0.0000 C   0  0
    0.3452   -6.7796    0.0000 C   0  0
    0.5999   -7.5643    0.0000 C   0  0
    0.0478   -8.1773    0.0000 C   0  0
    0.3044   -8.9618    0.0000 C   0  0
    1.1120   -9.1325    0.0000 N   0  0
    1.3696   -9.9163    0.0000 C   0  0
    2.1771  -10.0852    0.0000 C   0  0
    2.7271   -9.4702    0.0000 N   0  0
    2.4696   -8.6865    0.0000 C   0  0
    1.6621   -8.5175    0.0000 C   0  0
   -0.7591   -8.0056    0.0000 C   0  0
   -1.0139   -7.2210    0.0000 C   0  0
   -1.3116   -8.6190    0.0000 C   0  0
   -1.1081   -9.2468    0.0000 F   0  0
   -1.9571   -8.4814    0.0000 F   0  0
   -1.7535   -9.1091    0.0000 F   0  0
    3.2655   -9.5828    0.0000 H   0  0
   -0.3510   -5.4140    0.0000 H   0  0
  1  2  1  0
  2  3  2  0
  3  4  1  0
  4  5  2  0
  5  6  1  0
  5 19  1  0
  6  7  2  0
  7  2  1  0
  7  8  1  0
  8  9  3  0
  9 10  1  0
 10 11  2  0
 11 12  1  0
 12 13  2  0
 13 14  1  0
 14 15  2  0
 15 16  1  0
 16 17  2  0
 17 18  1  0
 18 10  1  0
 18 13  1  0
 19 20  2  0
 19 21  1  0
 21 22  1  0
 21 40  1  0
 22 23  2  0
 23 24  1  0
 24 25  2  0
 25 26  1  0
 25 33  1  0
 26 27  1  0
 27 28  1  0
 28 29  1  0
 29 30  1  0
 30 31  1  0
 30 39  1  0
 31 32  1  0
 32 27  1  0
 33 34  2  0
 33 35  1  0
 34 22  1  0
 35 36  1  0
 35 37  1  0
 35 38  1  0
M  END
> <CMPD_CHEMBLID>
CHEMBL1170077

> <STANDARD_TYPE>
IC50

> <RELATION>
=

> <STANDARD_VALUE>
14

> <STANDARD_UNITS>
nM

> <Molecular_Weight>
517.54485

$$$$

  SciTegic11272012012D

 24 26  0  0  0  0            999 V2000
   -0.1742   -2.8725    0.0000 C   0  0
   -0.3790   -2.2450    0.0000 C   0  0
   -1.0247   -2.1088    0.0000 C   0  0
    0.1713   -1.6316    0.0000 N   0  0
    0.9918   -1.7179    0.0000 N   0  0
    1.3273   -0.9642    0.0000 C   0  0
    2.1348   -0.7925    0.0000 C   0  0
    2.7291   -1.3607    0.0000 C   0  0
    3.5209   -1.1288    0.0000 C   0  0
    3.7159   -0.3272    0.0000 C   0  0
    4.3494   -0.1417    0.0000 F   0  0
    3.1193    0.2426    0.0000 C   0  0
    3.3128    1.0450    0.0000 O   0  0
    2.3275    0.0107    0.0000 C   0  0
    0.7145   -0.4125    0.0000 C   0  0
    0.7145    0.4125    0.0000 C   0  0
    1.4285    0.8267    0.0000 N   0  0
    0.0000    0.8250    0.0000 N   0  0
   -0.7145    0.4125    0.0000 C   0  0
   -0.7145   -0.4125    0.0000 N   0  0
    0.0000   -0.8250    0.0000 C   0  0
    1.4277    1.3767    0.0000 H   0  0
    1.9053    0.5525    0.0000 H   0  0
    2.9145    1.4243    0.0000 H   0  0
  1  2  1  0
  2  3  1  0
  2  4  1  0
  4  5  1  0
  5  6  2  0
  6  7  1  0
  6 15  1  0
  7  8  2  0
  8  9  1  0
  9 10  2  0
 10 11  1  0
 10 12  1  0
 12 13  1  0
 12 14  2  0
 13 24  1  0
 14  7  1  0
 15 16  2  0
 16 17  1  0
 16 18  1  0
 17 22  1  0
 17 23  1  0
 18 19  2  0
 19 20  1  0
 20 21  2  0
 21  4  1  0
 21 15  1  0
M  END
> <CMPD_CHEMBLID>
CHEMBL1242377

> <STANDARD_TYPE>
IC50

> <RELATION>
=

> <STANDARD_VALUE>
14

> <STANDARD_UNITS>
nM

> <Molecular_Weight>
287.29226

$$$$

  SciTegic11272012012D

 41 45  0  0  0  0            999 V2000
   -7.6973    1.3688    0.0000 C   0  0
   -8.1414    0.8806    0.0000 C   0  0
   -7.8909    0.0941    0.0000 N   0  0
   -8.4451   -0.5169    0.0000 C   0  0
   -8.1931   -1.3025    0.0000 C   0  0
   -7.3868   -1.4771    0.0000 N   0  0
   -7.1330   -2.2625    0.0000 C   0  0
   -6.3260   -2.4360    0.0000 C   0  0
   -5.7738   -1.8230    0.0000 C   0  0
   -4.9669   -1.9947    0.0000 C   0  0
   -4.7120   -2.7794    0.0000 C   0  0
   -3.9050   -2.9528    0.0000 N   0  0
   -3.6512   -3.7383    0.0000 C   0  0
   -4.0938   -4.2279    0.0000 O   0  0
   -2.8442   -3.9117    0.0000 C   0  0
   -2.5894   -4.6964    0.0000 C   0  0
   -1.7825   -4.8681    0.0000 C   0  0
   -1.2303   -4.2551    0.0000 C   0  0
   -0.5848   -4.3925    0.0000 C   0  0
   -1.4851   -3.4705    0.0000 C   0  0
   -2.2921   -3.2988    0.0000 C   0  0
   -0.9327   -2.8571    0.0000 C   0  0
   -0.3802   -2.2438    0.0000 C   0  0
    0.1713   -1.6316    0.0000 C   0  0
    0.9918   -1.7178    0.0000 C   0  0
    1.3273   -0.9641    0.0000 N   0  0
    0.7144   -0.4125    0.0000 C   0  0
    0.7144    0.4125    0.0000 C   0  0
    0.0000    0.8250    0.0000 C   0  0
   -0.7144    0.4125    0.0000 C   0  0
   -0.7144   -0.4125    0.0000 N   0  0
    0.0000   -0.8250    0.0000 N   0  0
   -5.2643   -3.3924    0.0000 C   0  0
   -6.0712   -3.2207    0.0000 C   0  0
   -6.6237   -3.8340    0.0000 C   0  0
   -6.4203   -4.4618    0.0000 F   0  0
   -7.2692   -3.6964    0.0000 F   0  0
   -7.0656   -4.3241    0.0000 F   0  0
   -6.8325   -0.8660    0.0000 C   0  0
   -7.0846   -0.0804    0.0000 C   0  0
   -3.5362   -2.5448    0.0000 H   0  0
  1  2  1  0
  2  3  1  0
  3  4  1  0
  4  5  1  0
  5  6  1  0
  6  7  1  0
  6 39  1  0
  7  8  1  0
  8  9  2  0
  9 10  1  0
 10 11  2  0
 11 12  1  0
 11 33  1  0
 12 13  1  0
 12 41  1  0
 13 14  2  0
 13 15  1  0
 15 16  2  0
 16 17  1  0
 17 18  2  0
 18 19  1  0
 18 20  1  0
 20 21  2  0
 20 22  1  0
 21 15  1  0
 22 23  3  0
 23 24  1  0
 24 25  2  0
 25 26  1  0
 26 27  2  0
 27 28  1  0
 28 29  2  0
 29 30  1  0
 30 31  2  0
 31 32  1  0
 32 24  1  0
 32 27  1  0
 33 34  2  0
 34  8  1  0
 34 35  1  0
 35 36  1  0
 35 37  1  0
 35 38  1  0
 39 40  1  0
 40  3  1  0
M  END
> <CMPD_CHEMBLID>
CHEMBL1172004

> <STANDARD_TYPE>
IC50

> <RELATION>
=

> <STANDARD_VALUE>
14

> <STANDARD_UNITS>
nM

> <Molecular_Weight>
546.58607

$$$$

  SciTegic11272012012D

 32 35  0  0  0  0            999 V2000
    1.2861   -0.7425    0.0000 C   0  0
    0.7144   -0.4125    0.0000 C   0  0
    0.7144    0.4125    0.0000 C   0  0
    0.0000    0.8250    0.0000 C   0  0
   -0.7144    0.4125    0.0000 C   0  0
   -1.4302    0.8237    0.0000 N   0  0
   -2.1444    0.4100    0.0000 C   0  0
   -2.1433   -0.2500    0.0000 O   0  0
   -2.8602    0.8213    0.0000 C   0  0
   -3.5747    0.4088    0.0000 C   0  0
   -4.2892    0.8213    0.0000 C   0  0
   -4.2892    1.6463    0.0000 C   0  0
   -3.5747    2.0588    0.0000 C   0  0
   -2.8602    1.6463    0.0000 C   0  0
   -3.5747    2.8842    0.0000 C   0  0
   -4.1461    3.2146    0.0000 F   0  0
   -3.0031    3.2140    0.0000 F   0  0
   -3.5744    3.5442    0.0000 F   0  0
   -0.7144   -0.4125    0.0000 C   0  0
    0.0000   -0.8250    0.0000 C   0  0
    0.0000   -1.6504    0.0000 N   0  0
   -0.6667   -2.1244    0.0000 C   0  0
   -0.4105   -2.9086    0.0000 C   0  0
    0.4145   -2.9073    0.0000 C   0  0
    0.6682   -2.1223    0.0000 N   0  0
   -0.8946   -3.5771    0.0000 C   0  0
   -1.7165   -3.5538    0.0000 C   0  0
   -2.1487   -4.2565    0.0000 C   0  0
   -1.7563   -4.9822    0.0000 C   0  0
   -0.9316   -5.0051    0.0000 N   0  0
   -0.4994   -4.3024    0.0000 C   0  0
   -1.4312    1.3737    0.0000 H   0  0
  1  2  1  0
  2  3  2  0
  3  4  1  0
  4  5  2  0
  5  6  1  0
  5 19  1  0
  6  7  1  0
  6 32  1  0
  7  8  2  0
  7  9  1  0
  9 10  2  0
 10 11  1  0
 11 12  2  0
 12 13  1  0
 13 14  2  0
 13 15  1  0
 14  9  1  0
 15 16  1  0
 15 17  1  0
 15 18  1  0
 19 20  2  0
 20  2  1  0
 20 21  1  0
 21 22  1  0
 22 23  2  0
 23 24  1  0
 23 26  1  0
 24 25  2  0
 25 21  1  0
 26 27  2  0
 27 28  1  0
 28 29  2  0
 29 30  1  0
 30 31  2  0
 31 26  1  0
M  END
> <CMPD_CHEMBLID>
CHEMBL3597605

> <STANDARD_TYPE>
IC50

> <RELATION>
=

> <STANDARD_VALUE>
14.2

> <STANDARD_UNITS>
nM

> <Molecular_Weight>
422.40249

$$$$

  SciTegic11272012012D

 41 45  0  0  0  0            999 V2000
   -6.4727    0.7625    0.0000 C   0  0
   -7.1190    0.6286    0.0000 N   0  0
   -7.5579    1.1214    0.0000 C   0  0
   -7.3781   -0.1536    0.0000 C   0  0
   -8.1637   -0.4057    0.0000 C   0  0
   -8.1667   -1.2307    0.0000 C   0  0
   -7.3868   -1.4771    0.0000 N   0  0
   -7.1330   -2.2625    0.0000 C   0  0
   -6.3259   -2.4360    0.0000 C   0  0
   -5.7738   -1.8230    0.0000 C   0  0
   -4.9669   -1.9947    0.0000 C   0  0
   -4.7120   -2.7794    0.0000 C   0  0
   -3.9050   -2.9528    0.0000 N   0  0
   -3.6512   -3.7383    0.0000 C   0  0
   -4.0938   -4.2279    0.0000 O   0  0
   -2.8442   -3.9117    0.0000 C   0  0
   -2.5894   -4.6964    0.0000 C   0  0
   -1.7825   -4.8681    0.0000 C   0  0
   -1.2303   -4.2551    0.0000 C   0  0
   -0.5848   -4.3925    0.0000 C   0  0
   -1.4851   -3.4705    0.0000 C   0  0
   -2.2921   -3.2988    0.0000 C   0  0
   -0.9327   -2.8571    0.0000 C   0  0
   -0.3802   -2.2438    0.0000 C   0  0
    0.1713   -1.6316    0.0000 C   0  0
    0.9918   -1.7178    0.0000 C   0  0
    1.3273   -0.9641    0.0000 N   0  0
    0.7144   -0.4125    0.0000 C   0  0
    0.7144    0.4125    0.0000 C   0  0
    0.0000    0.8250    0.0000 C   0  0
   -0.7144    0.4125    0.0000 C   0  0
   -0.7144   -0.4125    0.0000 C   0  0
    0.0000   -0.8250    0.0000 N   0  0
   -5.2643   -3.3924    0.0000 C   0  0
   -6.0712   -3.2207    0.0000 C   0  0
   -6.6237   -3.8340    0.0000 C   0  0
   -6.4203   -4.4618    0.0000 F   0  0
   -7.2692   -3.6964    0.0000 F   0  0
   -7.0656   -4.3241    0.0000 F   0  0
   -6.8957   -0.8228    0.0000 C   0  0
   -3.5362   -2.5448    0.0000 H   0  0
  1  2  1  0
  2  3  1  0
  2  4  1  0
  4  5  1  0
  5  6  1  0
  6  7  1  0
  7  8  1  0
  7 40  1  0
  8  9  1  0
  9 10  2  0
 10 11  1  0
 11 12  2  0
 12 13  1  0
 12 34  1  0
 13 14  1  0
 13 41  1  0
 14 15  2  0
 14 16  1  0
 16 17  2  0
 17 18  1  0
 18 19  2  0
 19 20  1  0
 19 21  1  0
 21 22  2  0
 21 23  1  0
 22 16  1  0
 23 24  3  0
 24 25  1  0
 25 26  2  0
 26 27  1  0
 27 28  2  0
 28 29  1  0
 29 30  2  0
 30 31  1  0
 31 32  2  0
 32 33  1  0
 33 25  1  0
 33 28  1  0
 34 35  2  0
 35  9  1  0
 35 36  1  0
 36 37  1  0
 36 38  1  0
 36 39  1  0
 40  4  1  0
M  END
> <CMPD_CHEMBLID>
CHEMBL1171473

> <STANDARD_TYPE>
IC50

> <RELATION>
=

> <STANDARD_VALUE>
15

> <STANDARD_UNITS>
nM

> <Molecular_Weight>
545.59801

$$$$

  SciTegic11272012012D

 40 44  0  0  0  0            999 V2000
   -8.0924    0.7225    0.0000 C   0  0
   -7.8908    0.0941    0.0000 N   0  0
   -8.4451   -0.5169    0.0000 C   0  0
   -8.1930   -1.3025    0.0000 C   0  0
   -7.3867   -1.4771    0.0000 N   0  0
   -7.1329   -2.2625    0.0000 C   0  0
   -6.3259   -2.4360    0.0000 C   0  0
   -5.7738   -1.8230    0.0000 C   0  0
   -4.9668   -1.9947    0.0000 C   0  0
   -4.7120   -2.7794    0.0000 C   0  0
   -5.2643   -3.3924    0.0000 C   0  0
   -6.0712   -3.2207    0.0000 C   0  0
   -6.6236   -3.8339    0.0000 C   0  0
   -6.4202   -4.4618    0.0000 F   0  0
   -7.2692   -3.6964    0.0000 F   0  0
   -7.0656   -4.3241    0.0000 F   0  0
   -3.9050   -2.9528    0.0000 C   0  0
   -3.4624   -2.4632    0.0000 O   0  0
   -3.6512   -3.7383    0.0000 N   0  0
   -2.8442   -3.9117    0.0000 C   0  0
   -2.5894   -4.6964    0.0000 C   0  0
   -1.7825   -4.8681    0.0000 C   0  0
   -1.2303   -4.2551    0.0000 C   0  0
   -0.5848   -4.3925    0.0000 C   0  0
   -1.4851   -3.4705    0.0000 C   0  0
   -2.2920   -3.2988    0.0000 C   0  0
   -0.9327   -2.8571    0.0000 C   0  0
   -0.3802   -2.2438    0.0000 C   0  0
    0.1713   -1.6316    0.0000 C   0  0
    0.9917   -1.7178    0.0000 C   0  0
    1.3273   -0.9641    0.0000 N   0  0
    0.7144   -0.4125    0.0000 C   0  0
    0.7144    0.4125    0.0000 C   0  0
    0.0000    0.8250    0.0000 C   0  0
   -0.7144    0.4125    0.0000 C   0  0
   -0.7144   -0.4125    0.0000 N   0  0
    0.0000   -0.8250    0.0000 N   0  0
   -6.8325   -0.8660    0.0000 C   0  0
   -7.0845   -0.0804    0.0000 C   0  0
   -4.0200   -4.1463    0.0000 H   0  0
  1  2  1  0
  2  3  1  0
  3  4  1  0
  4  5  1  0
  5  6  1  0
  5 38  1  0
  6  7  1  0
  7  8  2  0
  8  9  1  0
  9 10  2  0
 10 11  1  0
 10 17  1  0
 11 12  2  0
 12  7  1  0
 12 13  1  0
 13 14  1  0
 13 15  1  0
 13 16  1  0
 17 18  2  0
 17 19  1  0
 19 20  1  0
 19 40  1  0
 20 21  2  0
 21 22  1  0
 22 23  2  0
 23 24  1  0
 23 25  1  0
 25 26  2  0
 25 27  1  0
 26 20  1  0
 27 28  3  0
 28 29  1  0
 29 30  2  0
 30 31  1  0
 31 32  2  0
 32 33  1  0
 33 34  2  0
 34 35  1  0
 35 36  2  0
 36 37  1  0
 37 29  1  0
 37 32  1  0
 38 39  1  0
 39  2  1  0
M  END
> <CMPD_CHEMBLID>
CHEMBL2324930

> <STANDARD_TYPE>
IC50

> <RELATION>
=

> <STANDARD_VALUE>
15

> <STANDARD_UNITS>
nM

> <Molecular_Weight>
532.55949

$$$$

  SciTegic11272012012D

 26 29  0  0  0  0            999 V2000
    2.1455    0.2461    0.0000 C   0  0
    2.1445   -0.4139    0.0000 C   0  0
    2.8583   -0.8275    0.0000 C   0  0
    2.8570   -1.6525    0.0000 C   0  0
    2.1419   -2.0639    0.0000 C   0  0
    2.1408   -2.7239    0.0000 F   0  0
    1.4281   -1.6502    0.0000 C   0  0
    1.4293   -0.8252    0.0000 C   0  0
    0.7144   -0.4125    0.0000 C   0  0
    0.7144    0.4125    0.0000 C   0  0
    0.0000    0.8250    0.0000 C   0  0
   -0.7144    0.4125    0.0000 C   0  0
   -1.4290    0.8250    0.0000 C   0  0
   -2.1434    0.4125    0.0000 C   0  0
   -2.8591    0.8237    0.0000 N   0  0
   -3.5734    0.4100    0.0000 C   0  0
   -3.5722   -0.2500    0.0000 O   0  0
   -4.2891    0.8213    0.0000 C   0  0
   -4.8601    0.4903    0.0000 F   0  0
   -3.8778    1.4632    0.0000 C   0  0
   -4.7028    1.4617    0.0000 C   0  0
   -2.1434   -0.4125    0.0000 N   0  0
   -1.4290   -0.8250    0.0000 C   0  0
   -0.7144   -0.4125    0.0000 C   0  0
    0.0000   -0.8250    0.0000 C   0  0
   -2.8601    1.3737    0.0000 H   0  0
  1  2  1  0
  2  3  2  0
  3  4  1  0
  4  5  2  0
  5  6  1  0
  5  7  1  0
  7  8  2  0
  8  2  1  0
  8  9  1  0
  9 10  2  0
 10 11  1  0
 11 12  2  0
 12 13  1  0
 13 14  2  0
 14 15  1  0
 14 22  1  0
 15 16  1  0
 15 26  1  0
 16 17  2  0
 16 18  1  0
 18 19  1  0
 18 20  1  0
 20 21  1  0
 21 18  1  0
 22 23  2  0
 23 24  1  0
 24 12  1  0
 24 25  2  0
 25  9  1  0
M  END
> <CMPD_CHEMBLID>
CHEMBL3685007

> <STANDARD_TYPE>
Ki

> <RELATION>
=

> <STANDARD_VALUE>
15

> <STANDARD_UNITS>
nM

> <Molecular_Weight>
338.35065

$$$$

  SciTegic11272012012D

 22 24  0  0  0  0            999 V2000
    2.1455    0.2461    0.0000 C   0  0
    2.1445   -0.4139    0.0000 C   0  0
    2.8583   -0.8275    0.0000 C   0  0
    2.8570   -1.6525    0.0000 C   0  0
    2.1419   -2.0639    0.0000 C   0  0
    2.1408   -2.7239    0.0000 F   0  0
    1.4281   -1.6502    0.0000 C   0  0
    1.4293   -0.8252    0.0000 C   0  0
    0.7144   -0.4125    0.0000 C   0  0
    0.7144    0.4125    0.0000 C   0  0
    0.0000    0.8250    0.0000 C   0  0
   -0.7144    0.4125    0.0000 C   0  0
   -1.4290    0.8250    0.0000 C   0  0
   -1.4290    1.4850    0.0000 Cl  0  0
   -2.1434    0.4125    0.0000 C   0  0
   -2.8591    0.8237    0.0000 N   0  0
   -2.1434   -0.4125    0.0000 N   0  0
   -1.4290   -0.8250    0.0000 C   0  0
   -0.7144   -0.4125    0.0000 C   0  0
    0.0000   -0.8250    0.0000 C   0  0
   -3.3350    0.5481    0.0000 H   0  0
   -2.8601    1.3737    0.0000 H   0  0
  1  2  1  0
  2  3  2  0
  3  4  1  0
  4  5  2  0
  5  6  1  0
  5  7  1  0
  7  8  2  0
  8  2  1  0
  8  9  1  0
  9 10  2  0
 10 11  1  0
 11 12  2  0
 12 13  1  0
 13 14  1  0
 13 15  2  0
 15 16  1  0
 15 17  1  0
 16 21  1  0
 16 22  1  0
 17 18  2  0
 18 19  1  0
 19 12  1  0
 19 20  2  0
 20  9  1  0
M  END
> <CMPD_CHEMBLID>
CHEMBL3685094

> <STANDARD_TYPE>
Ki

> <RELATION>
=

> <STANDARD_VALUE>
15

> <STANDARD_UNITS>
nM

> <Molecular_Weight>
286.73128

$$$$

  SciTegic11272012012D

 25 28  0  0  0  0            999 V2000
    0.8560   -1.9793    0.0000 Cl  0  0
    1.4281   -1.6502    0.0000 C   0  0
    2.1419   -2.0639    0.0000 C   0  0
    2.8570   -1.6525    0.0000 C   0  0
    2.8583   -0.8275    0.0000 C   0  0
    2.1445   -0.4139    0.0000 C   0  0
    2.1455    0.2461    0.0000 Cl  0  0
    1.4293   -0.8252    0.0000 C   0  0
    0.7144   -0.4125    0.0000 C   0  0
    0.7144    0.4125    0.0000 C   0  0
    0.0000    0.8250    0.0000 C   0  0
   -0.7144    0.4125    0.0000 C   0  0
   -1.4290    0.8250    0.0000 C   0  0
   -2.1434    0.4125    0.0000 C   0  0
   -2.8591    0.8237    0.0000 N   0  0
   -3.5734    0.4100    0.0000 C   0  0
   -3.5722   -0.2500    0.0000 O   0  0
   -4.2891    0.8213    0.0000 C   0  0
   -5.0706    0.7961    0.0000 C   0  0
   -4.6581    1.5106    0.0000 C   0  0
   -2.1434   -0.4125    0.0000 N   0  0
   -1.4290   -0.8250    0.0000 C   0  0
   -0.7144   -0.4125    0.0000 C   0  0
    0.0000   -0.8250    0.0000 N   0  0
   -2.8601    1.3737    0.0000 H   0  0
  1  2  1  0
  2  3  2  0
  3  4  1  0
  4  5  2  0
  5  6  1  0
  6  7  1  0
  6  8  2  0
  8  2  1  0
  8  9  1  0
  9 10  2  0
 10 11  1  0
 11 12  2  0
 12 13  1  0
 13 14  2  0
 14 15  1  0
 14 21  1  0
 15 16  1  0
 15 25  1  0
 16 17  2  0
 16 18  1  0
 18 19  1  0
 19 20  1  0
 20 18  1  0
 21 22  2  0
 22 23  1  0
 23 12  1  0
 23 24  2  0
 24  9  1  0
M  END
> <CMPD_CHEMBLID>
CHEMBL3689682

> <STANDARD_TYPE>
Ki

> <RELATION>
=

> <STANDARD_VALUE>
15

> <STANDARD_UNITS>
nM

> <Molecular_Weight>
358.22132

$$$$

  SciTegic11272012012D

 34 37  0  0  0  0            999 V2000
    1.4276   -1.4867    0.0000 C   0  0
    1.4285   -0.8267    0.0000 C   0  0
    2.0006   -0.4977    0.0000 C   0  0
    0.7144   -0.4125    0.0000 C   0  0
    0.7144    0.4125    0.0000 N   0  0
    0.0000    0.8250    0.0000 C   0  0
    0.0017    1.6504    0.0000 N   0  0
    0.7171    2.0622    0.0000 C   0  0
    0.7201    2.8872    0.0000 C   0  0
    1.4359    3.2972    0.0000 C   0  0
    2.1490    2.8823    0.0000 C   0  0
    2.1461    2.0573    0.0000 C   0  0
    1.4302    1.6472    0.0000 C   0  0
    2.8653    3.2925    0.0000 P   0  0
    2.8680    3.9525    0.0000 O   0  0
    3.4356    2.9604    0.0000 C   0  0
    3.4381    3.6203    0.0000 C   0  0
   -0.7144    0.4125    0.0000 C   0  0
   -1.4986    0.6674    0.0000 N   0  0
   -1.9836    0.0000    0.0000 C   0  0
   -1.4986   -0.6674    0.0000 N   0  0
   -1.7547   -1.4507    0.0000 C   0  0
   -2.5623   -1.6213    0.0000 C   0  0
   -2.8189   -2.4059    0.0000 C   0  0
   -3.6259   -2.5776    0.0000 C   0  0
   -4.0676   -2.0872    0.0000 C   0  0
   -3.8807   -3.3623    0.0000 C   0  0
   -3.3285   -3.9752    0.0000 C   0  0
   -2.5216   -3.8036    0.0000 C   0  0
   -2.2668   -3.0189    0.0000 C   0  0
   -1.6212   -2.8816    0.0000 C   0  0
   -0.7144   -0.4125    0.0000 C   0  0
    0.0000   -0.8250    0.0000 N   0  0
   -0.4742    1.9263    0.0000 H   0  0
  1  2  1  0
  2  3  1  0
  2  4  1  0
  4  5  2  0
  5  6  1  0
  6  7  1  0
  6 18  2  0
  7  8  1  0
  7 34  1  0
  8  9  2  0
  9 10  1  0
 10 11  2  0
 11 12  1  0
 11 14  1  0
 12 13  2  0
 13  8  1  0
 14 15  2  0
 14 16  1  0
 14 17  1  0
 18 19  1  0
 19 20  2  0
 20 21  1  0
 21 22  1  0
 21 32  1  0
 22 23  2  0
 23 24  1  0
 24 25  2  0
 25 26  1  0
 25 27  1  0
 27 28  2  0
 28 29  1  0
 29 30  2  0
 30 24  1  0
 30 31  1  0
 32 18  1  0
 32 33  2  0
 33  4  1  0
M  END
> <CMPD_CHEMBLID>
CHEMBL459877

> <STANDARD_TYPE>
IC50

> <RELATION>
=

> <STANDARD_VALUE>
15.8

> <STANDARD_UNITS>
nM

> <Molecular_Weight>
459.52306

$$$$

  SciTegic11272012012D

 40 44  0  0  0  0            999 V2000
   -1.1293   -4.0561    0.0000 C   0  0
   -1.0091   -3.4072    0.0000 N   0  0
   -0.2645   -3.0519    0.0000 C   0  0
   -0.3810   -2.2449    0.0000 C   0  0
   -1.1835   -2.0837    0.0000 C   0  0
   -1.5771   -2.8088    0.0000 N   0  0
    0.1713   -1.6316    0.0000 C   0  0
    0.9918   -1.7178    0.0000 C   0  0
    1.3273   -0.9641    0.0000 N   0  0
    0.7144   -0.4125    0.0000 N   0  0
    0.7144    0.4125    0.0000 C   0  0
    1.4285    0.8267    0.0000 N   0  0
    0.0000    0.8250    0.0000 C   0  0
   -0.7144    0.4125    0.0000 C   0  0
   -0.7144   -0.4125    0.0000 N   0  0
    0.0000   -0.8250    0.0000 C   0  0
    0.0000    1.6504    0.0000 C   0  0
    0.7138    2.0641    0.0000 C   0  0
    0.7125    2.8891    0.0000 C   0  0
   -0.0026    3.3005    0.0000 C   0  0
   -0.0057    4.1259    0.0000 N   0  0
   -0.7218    4.5365    0.0000 C   0  0
   -1.2922    4.2046    0.0000 O   0  0
   -0.7248    5.3619    0.0000 N   0  0
   -1.4409    5.7725    0.0000 C   0  0
   -1.4451    6.5975    0.0000 C   0  0
   -2.1616    7.0064    0.0000 C   0  0
   -2.8740    6.5903    0.0000 C   0  0
   -2.8698    5.7653    0.0000 C   0  0
   -2.1533    5.3564    0.0000 C   0  0
   -3.5826    5.3490    0.0000 C   0  0
   -4.1561    5.6757    0.0000 F   0  0
   -3.5791    4.6890    0.0000 F   0  0
   -4.1523    5.0158    0.0000 F   0  0
   -0.7164    2.8868    0.0000 C   0  0
   -0.7151    2.0618    0.0000 C   0  0
   -0.2494    5.6385    0.0000 H   0  0
    0.4698    4.4025    0.0000 H   0  0
    1.4277    1.3767    0.0000 H   0  0
    1.9053    0.5525    0.0000 H   0  0
  1  2  1  0
  2  3  1  0
  3  4  2  0
  4  5  1  0
  4  7  1  0
  5  6  2  0
  6  2  1  0
  7  8  1  0
  8  9  2  0
  9 10  1  0
 10 11  1  0
 11 12  1  0
 11 13  2  0
 12 39  1  0
 12 40  1  0
 13 14  1  0
 13 17  1  0
 14 15  2  0
 15 16  1  0
 16  7  2  0
 16 10  1  0
 17 18  2  0
 18 19  1  0
 19 20  2  0
 20 21  1  0
 20 35  1  0
 21 22  1  0
 21 38  1  0
 22 23  2  0
 22 24  1  0
 24 25  1  0
 24 37  1  0
 25 26  2  0
 26 27  1  0
 27 28  2  0
 28 29  1  0
 29 30  2  0
 29 31  1  0
 30 25  1  0
 31 32  1  0
 31 33  1  0
 31 34  1  0
 35 36  2  0
 36 17  1  0
M  END
> <CMPD_CHEMBLID>
CHEMBL1988717

> <STANDARD_TYPE>
Ki

> <RELATION>
=

> <STANDARD_VALUE>
15.85

> <STANDARD_UNITS>
nM

> <Molecular_Weight>
492.45587

$$$$

  SciTegic11272012012D

 36 40  0  0  0  0            999 V2000
    1.2861   -0.7425    0.0000 C   0  0
    0.7145   -0.4125    0.0000 N   0  0
    0.7145    0.4125    0.0000 C   0  0
    0.0000    0.8250    0.0000 C   0  0
   -0.7145    0.4125    0.0000 N   0  0
   -0.7145   -0.4125    0.0000 C   0  0
    0.0000   -0.8250    0.0000 C   0  0
   -1.4293    0.8252    0.0000 C   0  0
   -1.4307    1.6502    0.0000 C   0  0
   -2.1458    2.0616    0.0000 C   0  0
   -2.1488    2.8871    0.0000 N   0  0
   -2.8649    3.2976    0.0000 C   0  0
   -2.9449    4.1117    0.0000 C   0  0
   -3.7527    4.2791    0.0000 C   0  0
   -4.0242    4.8807    0.0000 C   0  0
   -4.1616    3.5626    0.0000 N   0  0
   -3.6065    2.9523    0.0000 N   0  0
   -2.8596    1.6480    0.0000 N   0  0
   -2.8583    0.8230    0.0000 C   0  0
   -3.5717    0.4076    0.0000 S   0  0
   -3.5692   -0.4178    0.0000 C   0  0
   -4.2815   -0.8340    0.0000 C   0  0
   -4.2774   -1.6590    0.0000 C   0  0
   -3.5608   -2.0678    0.0000 C   0  0
   -3.5550   -2.8933    0.0000 N   0  0
   -2.8375   -3.3014    0.0000 C   0  0
   -2.2681   -2.9675    0.0000 O   0  0
   -2.8316   -4.1268    0.0000 C   0  0
   -2.4158   -4.7890    0.0000 C   0  0
   -3.2408   -4.7931    0.0000 C   0  0
   -2.8485   -1.6518    0.0000 C   0  0
   -2.8526   -0.8268    0.0000 C   0  0
   -2.1432    0.4116    0.0000 N   0  0
   -4.0294   -3.1715    0.0000 H   0  0
   -4.7083    3.5023    0.0000 H   0  0
   -1.6734    3.1637    0.0000 H   0  0
  1  2  1  0
  2  3  1  0
  3  4  1  0
  4  5  1  0
  5  6  1  0
  5  8  1  0
  6  7  1  0
  7  2  1  0
  8  9  2  0
  9 10  1  0
 10 11  1  0
 10 18  2  0
 11 12  1  0
 11 36  1  0
 12 13  1  0
 13 14  2  0
 14 15  1  0
 14 16  1  0
 16 17  1  0
 16 35  1  0
 17 12  2  0
 18 19  1  0
 19 20  1  0
 19 33  2  0
 20 21  1  0
 21 22  2  0
 22 23  1  0
 23 24  2  0
 24 25  1  0
 24 31  1  0
 25 26  1  0
 25 34  1  0
 26 27  2  0
 26 28  1  0
 28 29  1  0
 29 30  1  0
 30 28  1  0
 31 32  2  0
 32 21  1  0
 33  8  1  0
M  END
> <CMPD_CHEMBLID>
CHEMBL572878

> <STANDARD_TYPE>
Ki

> <RELATION>
=

> <STANDARD_VALUE>
15.85

> <STANDARD_UNITS>
nM

> <Molecular_Weight>
464.58642

$$$$

  SciTegic11272012012D

 29 32  0  0  0  0            999 V2000
    1.2861   -0.7425    0.0000 C   0  0
    0.7144   -0.4125    0.0000 C   0  0
    0.7144    0.4125    0.0000 C   0  0
    0.0000    0.8250    0.0000 C   0  0
   -0.7144    0.4125    0.0000 C   0  0
   -1.4302    0.8237    0.0000 N   0  0
   -2.1444    0.4100    0.0000 C   0  0
   -2.1433   -0.2500    0.0000 O   0  0
   -2.8602    0.8213    0.0000 C   0  0
   -3.5747    0.4088    0.0000 C   0  0
   -4.2892    0.8213    0.0000 C   0  0
   -4.2892    1.6463    0.0000 C   0  0
   -3.5747    2.0588    0.0000 C   0  0
   -3.5747    2.7188    0.0000 Cl  0  0
   -2.8602    1.6463    0.0000 C   0  0
   -0.7144   -0.4125    0.0000 C   0  0
    0.0000   -0.8250    0.0000 C   0  0
    0.0000   -1.6504    0.0000 N   0  0
   -0.6667   -2.1244    0.0000 C   0  0
   -0.4105   -2.9086    0.0000 C   0  0
    0.4145   -2.9073    0.0000 C   0  0
    0.6682   -2.1223    0.0000 N   0  0
   -0.8946   -3.5771    0.0000 C   0  0
   -1.7165   -3.5538    0.0000 C   0  0
   -2.1487   -4.2565    0.0000 C   0  0
   -1.7563   -4.9822    0.0000 C   0  0
   -0.9316   -5.0051    0.0000 N   0  0
   -0.4994   -4.3024    0.0000 C   0  0
   -1.4312    1.3737    0.0000 H   0  0
  1  2  1  0
  2  3  2  0
  3  4  1  0
  4  5  2  0
  5  6  1  0
  5 16  1  0
  6  7  1  0
  6 29  1  0
  7  8  2  0
  7  9  1  0
  9 10  2  0
 10 11  1  0
 11 12  2  0
 12 13  1  0
 13 14  1  0
 13 15  2  0
 15  9  1  0
 16 17  2  0
 17  2  1  0
 17 18  1  0
 18 19  1  0
 19 20  2  0
 20 21  1  0
 20 23  1  0
 21 22  2  0
 22 18  1  0
 23 24  2  0
 24 25  1  0
 25 26  2  0
 26 27  1  0
 27 28  2  0
 28 23  1  0
M  END
> <CMPD_CHEMBLID>
CHEMBL3597606

> <STANDARD_TYPE>
IC50

> <RELATION>
=

> <STANDARD_VALUE>
15.9

> <STANDARD_UNITS>
nM

> <Molecular_Weight>
388.84958

$$$$

  SciTegic11272012012D

 25 28  0  0  0  0            999 V2000
    2.1456    0.2461    0.0000 C   0  0
    2.1445   -0.4139    0.0000 N   0  0
    2.8583   -0.8275    0.0000 C   0  0
    3.4305   -0.4984    0.0000 O   0  0
    2.8570   -1.6525    0.0000 C   0  0
    2.1419   -2.0639    0.0000 C   0  0
    1.4281   -1.6502    0.0000 C   0  0
    1.4293   -0.8252    0.0000 C   0  0
    0.7145   -0.4125    0.0000 C   0  0
    0.7145    0.4125    0.0000 C   0  0
    0.0000    0.8250    0.0000 C   0  0
   -0.7145    0.4125    0.0000 C   0  0
   -1.4290    0.8250    0.0000 C   0  0
   -2.1434    0.4125    0.0000 C   0  0
   -2.8592    0.8237    0.0000 N   0  0
   -3.5735    0.4100    0.0000 C   0  0
   -3.5723   -0.2500    0.0000 O   0  0
   -4.2892    0.8213    0.0000 C   0  0
   -5.0706    0.7961    0.0000 C   0  0
   -4.6581    1.5106    0.0000 C   0  0
   -2.1434   -0.4125    0.0000 N   0  0
   -1.4290   -0.8250    0.0000 C   0  0
   -0.7145   -0.4125    0.0000 C   0  0
    0.0000   -0.8250    0.0000 C   0  0
   -2.8601    1.3738    0.0000 H   0  0
  1  2  1  0
  2  3  1  0
  3  4  2  0
  3  5  1  0
  5  6  2  0
  6  7  1  0
  7  8  2  0
  8  2  1  0
  8  9  1  0
  9 10  2  0
 10 11  1  0
 11 12  2  0
 12 13  1  0
 13 14  2  0
 14 15  1  0
 14 21  1  0
 15 16  1  0
 15 25  1  0
 16 17  2  0
 16 18  1  0
 18 19  1  0
 19 20  1  0
 20 18  1  0
 21 22  2  0
 22 23  1  0
 23 12  1  0
 23 24  2  0
 24  9  1  0
M  END
> <CMPD_CHEMBLID>
CHEMBL3685040

> <STANDARD_TYPE>
Ki

> <RELATION>
=

> <STANDARD_VALUE>
16

> <STANDARD_UNITS>
nM

> <Molecular_Weight>
319.35718

$$$$

  SciTegic11272012012D

 23 25  0  0  0  0            999 V2000
    1.4276   -1.4867    0.0000 C   0  0
    1.4285   -0.8267    0.0000 O   0  0
    0.7145   -0.4125    0.0000 C   0  0
    0.7145    0.4125    0.0000 C   0  0
    0.0000    0.8250    0.0000 C   0  0
   -0.7145    0.4125    0.0000 C   0  0
   -1.4302    0.8238    0.0000 C   0  0
   -2.1445    0.4100    0.0000 C   0  0
   -2.8890    0.7490    0.0000 C   0  0
   -3.4389    0.1340    0.0000 N   0  0
   -3.0239   -0.5791    0.0000 C   0  0
   -3.3549   -1.3337    0.0000 N   0  0
   -2.8664   -1.9992    0.0000 C   0  0
   -2.2104   -1.9267    0.0000 O   0  0
   -3.1979   -2.7551    0.0000 C   0  0
   -2.7781   -3.4572    0.0000 C   0  0
   -3.3280   -4.0722    0.0000 C   0  0
   -4.0828   -3.7393    0.0000 C   0  0
   -3.9995   -2.9185    0.0000 S   0  0
   -2.2175   -0.4048    0.0000 S   0  0
   -0.7145   -0.4125    0.0000 C   0  0
    0.0000   -0.8250    0.0000 C   0  0
   -3.9016   -1.3941    0.0000 H   0  0
  1  2  1  0
  2  3  1  0
  3  4  2  0
  4  5  1  0
  5  6  2  0
  6  7  1  0
  6 21  1  0
  7  8  1  0
  8  9  2  0
  9 10  1  0
 10 11  2  0
 11 12  1  0
 11 20  1  0
 12 13  1  0
 12 23  1  0
 13 14  2  0
 13 15  1  0
 15 16  2  0
 16 17  1  0
 17 18  2  0
 18 19  1  0
 19 15  1  0
 20  8  1  0
 21 22  2  0
 22  3  1  0
M  END
> <CMPD_CHEMBLID>
CHEMBL476304

> <STANDARD_TYPE>
Ki

> <RELATION>
=

> <STANDARD_VALUE>
16

> <STANDARD_UNITS>
nM

> <Molecular_Weight>
330.42456

$$$$

  SciTegic11272012012D

 41 45  0  0  0  0            999 V2000
    1.2861   -0.7425    0.0000 C   0  0
    0.7144   -0.4125    0.0000 C   0  0
    0.7144    0.4125    0.0000 C   0  0
    0.0000    0.8250    0.0000 C   0  0
   -0.7144    0.4125    0.0000 C   0  0
   -0.7144   -0.4125    0.0000 C   0  0
   -1.4290   -0.8250    0.0000 N   0  0
   -1.4290   -1.6500    0.0000 N   0  0
   -0.7144   -2.0625    0.0000 C   0  0
   -0.7127   -2.8879    0.0000 N   0  0
    0.0027   -3.2997    0.0000 C   0  0
    0.0056   -4.1247    0.0000 C   0  0
    0.7215   -4.5347    0.0000 C   0  0
    1.4345   -4.1197    0.0000 C   0  0
    1.4317   -3.2947    0.0000 C   0  0
    0.7158   -2.8847    0.0000 C   0  0
    2.1508   -4.5300    0.0000 S   0  0
    2.7211   -4.1978    0.0000 O   0  0
    2.7237   -4.8577    0.0000 O   0  0
    2.1542   -5.3554    0.0000 N   0  0
    2.8705   -5.7656    0.0000 C   0  0
    2.8739   -6.5911    0.0000 C   0  0
    3.5902   -7.0014    0.0000 N   0  0
    3.6705   -7.8154    0.0000 C   0  0
    4.4784   -7.9825    0.0000 C   0  0
    4.8870   -7.2657    0.0000 C   0  0
    4.3315   -6.6557    0.0000 C   0  0
    0.0000   -1.6500    0.0000 N   0  0
    0.0000   -0.8250    0.0000 C   0  0
    0.0000    1.6504    0.0000 C   0  0
   -0.7151    2.0618    0.0000 C   0  0
   -0.7164    2.8868    0.0000 C   0  0
   -1.4311    3.2999    0.0000 N   0  0
   -0.0026    3.3005    0.0000 C   0  0
    0.7125    2.8891    0.0000 C   0  0
    0.7138    2.0641    0.0000 C   0  0
    1.2859    1.7350    0.0000 Cl  0  0
   -1.4312    3.8499    0.0000 H   0  0
   -1.9075    3.0250    0.0000 H   0  0
    1.6789   -5.6322    0.0000 H   0  0
   -1.1886   -3.1638    0.0000 H   0  0
  1  2  1  0
  2  3  2  0
  3  4  1  0
  4  5  2  0
  4 30  1  0
  5  6  1  0
  6  7  2  0
  7  8  1  0
  8  9  2  0
  9 10  1  0
  9 28  1  0
 10 11  1  0
 10 41  1  0
 11 12  2  0
 12 13  1  0
 13 14  2  0
 14 15  1  0
 14 17  1  0
 15 16  2  0
 16 11  1  0
 17 18  2  0
 17 19  2  0
 17 20  1  0
 20 21  1  0
 20 40  1  0
 21 22  1  0
 22 23  1  0
 23 24  1  0
 24 25  1  0
 25 26  1  0
 26 27  1  0
 27 23  1  0
 28 29  2  0
 29  2  1  0
 29  6  1  0
 30 31  2  0
 31 32  1  0
 32 33  1  0
 32 34  2  0
 33 38  1  0
 33 39  1  0
 34 35  1  0
 35 36  2  0
 36 30  1  0
 36 37  1  0
M  END
> <CMPD_CHEMBLID>
CHEMBL231524

> <STANDARD_TYPE>
Ki

> <RELATION>
=

> <STANDARD_VALUE>
16

> <STANDARD_UNITS>
nM

> <Molecular_Weight>
538.06422

$$$$

  SciTegic11272012012D

 33 37  0  0  0  0            999 V2000
    4.2815    1.4952    0.0000 C   0  0
    4.2840    0.8352    0.0000 P   0  0
    4.8569    0.5075    0.0000 O   0  0
    4.8543    1.1674    0.0000 C   0  0
    3.5706    0.4200    0.0000 C   0  0
    3.5734   -0.4050    0.0000 C   0  0
    2.8604   -0.8200    0.0000 C   0  0
    2.1444   -0.4100    0.0000 C   0  0
    1.4302   -0.8237    0.0000 N   0  0
    0.7144   -0.4125    0.0000 C   0  0
    0.7144    0.4125    0.0000 N   0  0
    0.0000    0.8250    0.0000 C   0  0
   -0.7144    0.4125    0.0000 N   0  0
   -0.7144   -0.4125    0.0000 C   0  0
    0.0000   -0.8250    0.0000 C   0  0
   -0.1713   -1.6316    0.0000 N   0  0
   -0.9918   -1.7178    0.0000 C   0  0
   -1.3273   -0.9641    0.0000 N   0  0
   -2.1337   -0.7943    0.0000 C   0  0
   -2.6852   -1.4084    0.0000 C   0  0
   -3.4930   -1.2383    0.0000 C   0  0
   -3.7478   -0.4536    0.0000 C   0  0
   -4.5548   -0.2820    0.0000 C   0  0
   -5.1069   -0.8950    0.0000 C   0  0
   -4.8521   -1.6797    0.0000 C   0  0
   -5.2646   -2.3936    0.0000 N   0  0
   -4.7126   -3.0068    0.0000 C   0  0
   -3.9589   -2.6713    0.0000 C   0  0
   -4.0452   -1.8513    0.0000 C   0  0
    2.1416    0.4150    0.0000 C   0  0
    2.8546    0.8300    0.0000 C   0  0
   -5.8116   -2.4510    0.0000 H   0  0
    1.4311   -1.3737    0.0000 H   0  0
  1  2  1  0
  2  3  2  0
  2  4  1  0
  2  5  1  0
  5  6  2  0
  6  7  1  0
  7  8  2  0
  8  9  1  0
  8 30  1  0
  9 10  1  0
  9 33  1  0
 10 11  2  0
 11 12  1  0
 12 13  2  0
 13 14  1  0
 14 15  2  0
 15 10  1  0
 15 16  1  0
 16 17  2  0
 17 18  1  0
 18 14  1  0
 18 19  1  0
 19 20  2  0
 20 21  1  0
 21 22  2  0
 22 23  1  0
 23 24  2  0
 24 25  1  0
 25 26  1  0
 26 27  1  0
 26 32  1  0
 27 28  2  0
 28 29  1  0
 29 21  1  0
 29 25  2  0
 30 31  2  0
 31  5  1  0
M  END
> <CMPD_CHEMBLID>
CHEMBL454868

> <STANDARD_TYPE>
IC50

> <RELATION>
=

> <STANDARD_VALUE>
16.7

> <STANDARD_UNITS>
nM

> <Molecular_Weight>
428.4262

$$$$

  SciTegic11272012012D

 37 41  0  0  0  0            999 V2000
    1.4276   -1.4867    0.0000 C   0  0
    1.4285   -0.8267    0.0000 C   0  0
    0.7144   -0.4125    0.0000 N   0  0
    0.7144    0.4125    0.0000 C   0  0
    0.0000    0.8250    0.0000 C   0  0
   -0.7144    0.4125    0.0000 N   0  0
   -1.4302    0.8237    0.0000 C   0  0
   -2.1444    0.4100    0.0000 C   0  0
   -2.8604    0.8200    0.0000 C   0  0
   -3.5734    0.4050    0.0000 C   0  0
   -3.5706   -0.4200    0.0000 C   0  0
   -2.8546   -0.8300    0.0000 C   0  0
   -2.1416   -0.4150    0.0000 C   0  0
   -4.2832   -0.8367    0.0000 C   0  0
   -4.8564   -0.5096    0.0000 O   0  0
   -4.2791   -1.6621    0.0000 N   0  0
   -4.9917   -2.0788    0.0000 C   0  0
   -4.9889   -2.9038    0.0000 C   0  0
   -5.7019   -3.3187    0.0000 C   0  0
   -6.4177   -2.9087    0.0000 C   0  0
   -6.9882   -3.2407    0.0000 C   0  0
   -6.4207   -2.0837    0.0000 C   0  0
   -5.7076   -1.6687    0.0000 C   0  0
   -7.1369   -1.6735    0.0000 N   0  0
   -7.8795   -2.0165    0.0000 C   0  0
   -8.4327   -1.4045    0.0000 C   0  0
   -8.0216   -0.6892    0.0000 C   0  0
   -7.2143   -0.8592    0.0000 N   0  0
   -9.2534   -1.4923    0.0000 C   0  0
   -9.6417   -2.2171    0.0000 C   0  0
  -10.4662   -2.2430    0.0000 C   0  0
  -10.9009   -1.5418    0.0000 C   0  0
  -10.5110   -0.8147    0.0000 N   0  0
   -9.6864   -0.7889    0.0000 C   0  0
   -0.7144   -0.4125    0.0000 C   0  0
    0.0000   -0.8250    0.0000 C   0  0
   -3.8014   -1.9346    0.0000 H   0  0
  1  2  1  0
  2  3  1  0
  3  4  1  0
  4  5  1  0
  5  6  1  0
  6  7  1  0
  6 35  1  0
  7  8  1  0
  8  9  2  0
  9 10  1  0
 10 11  2  0
 11 12  1  0
 11 14  1  0
 12 13  2  0
 13  8  1  0
 14 15  2  0
 14 16  1  0
 16 17  1  0
 16 37  1  0
 17 18  2  0
 18 19  1  0
 19 20  2  0
 20 21  1  0
 20 22  1  0
 22 23  2  0
 22 24  1  0
 23 17  1  0
 24 25  1  0
 25 26  2  0
 26 27  1  0
 26 29  1  0
 27 28  2  0
 28 24  1  0
 29 30  2  0
 30 31  1  0
 31 32  2  0
 32 33  1  0
 33 34  2  0
 34 29  1  0
 35 36  1  0
 36  3  1  0
M  END
> <CMPD_CHEMBLID>
CHEMBL3597701

> <STANDARD_TYPE>
IC50

> <RELATION>
=

> <STANDARD_VALUE>
16.87

> <STANDARD_UNITS>
nM

> <Molecular_Weight>
480.60398

$$$$

  SciTegic11272012012D

 23 25  0  0  0  0            999 V2000
    2.1402   -2.8919    0.0000 O   0  0
    2.1414   -2.0664    0.0000 C   0  0
    1.4273   -1.6522    0.0000 C   0  0
    1.4285   -0.8267    0.0000 N   0  0
    0.7145   -0.4125    0.0000 C   0  0
    0.7145    0.4125    0.0000 C   0  0
    0.0000    0.8250    0.0000 C   0  0
   -0.7145    0.4125    0.0000 C   0  0
   -1.4290    0.8250    0.0000 C   0  0
   -2.1435    0.4125    0.0000 C   0  0
   -2.8592    0.8238    0.0000 N   0  0
   -3.5735    0.4100    0.0000 C   0  0
   -3.5723   -0.2500    0.0000 O   0  0
   -4.2892    0.8213    0.0000 C   0  0
   -5.0707    0.7961    0.0000 C   0  0
   -4.6582    1.5106    0.0000 C   0  0
   -2.1435   -0.4125    0.0000 N   0  0
   -1.4290   -0.8250    0.0000 C   0  0
   -0.7145   -0.4125    0.0000 C   0  0
    0.0000   -0.8250    0.0000 C   0  0
   -2.8602    1.3738    0.0000 H   0  0
    1.9054   -0.5525    0.0000 H   0  0
    2.6160   -3.1678    0.0000 H   0  0
  1  2  1  0
  1 23  1  0
  2  3  1  0
  3  4  1  0
  4  5  1  0
  4 22  1  0
  5  6  2  0
  6  7  1  0
  7  8  2  0
  8  9  1  0
  9 10  2  0
 10 11  1  0
 10 17  1  0
 11 12  1  0
 11 21  1  0
 12 13  2  0
 12 14  1  0
 14 15  1  0
 15 16  1  0
 16 14  1  0
 17 18  2  0
 18 19  1  0
 19  8  1  0
 19 20  2  0
 20  5  1  0
M  END
> <CMPD_CHEMBLID>
CHEMBL3689573

> <STANDARD_TYPE>
Ki

> <RELATION>
=

> <STANDARD_VALUE>
17

> <STANDARD_UNITS>
nM

> <Molecular_Weight>
271.31438

$$$$

  SciTegic11272012012D

 26 29  0  0  0  0            999 V2000
    1.4302   -0.8238    0.0000 N   0  0
    0.7145   -0.4125    0.0000 C   0  0
    0.7145    0.4125    0.0000 N   0  0
    0.0000    0.8250    0.0000 C   0  0
   -0.7145    0.4125    0.0000 N   0  0
   -0.7145   -0.4125    0.0000 C   0  0
    0.0000   -0.8250    0.0000 C   0  0
   -0.1713   -1.6316    0.0000 C   0  0
   -0.9918   -1.7178    0.0000 N   0  0
   -1.3273   -0.9642    0.0000 N   0  0
   -2.1348   -0.7925    0.0000 C   0  0
   -2.7754   -1.2969    0.0000 C   0  0
   -3.4553   -0.8297    0.0000 C   0  0
   -3.2211   -0.0386    0.0000 O   0  0
   -2.3964   -0.0169    0.0000 C   0  0
    0.3811   -2.2450    0.0000 C   0  0
    1.1959   -2.1345    0.0000 C   0  0
    1.7002   -2.7874    0.0000 C   0  0
    1.3870   -3.5506    0.0000 C   0  0
    1.7905   -4.0729    0.0000 Cl  0  0
    0.5694   -3.6610    0.0000 C   0  0
    0.2544   -4.4240    0.0000 O   0  0
    0.0651   -3.0081    0.0000 C   0  0
   -0.2907   -4.4968    0.0000 H   0  0
    1.9062   -0.5481    0.0000 H   0  0
    1.4312   -1.3738    0.0000 H   0  0
  1  2  1  0
  1 25  1  0
  1 26  1  0
  2  3  2  0
  3  4  1  0
  4  5  2  0
  5  6  1  0
  6  7  2  0
  7  2  1  0
  7  8  1  0
  8  9  2  0
  8 16  1  0
  9 10  1  0
 10  6  1  0
 10 11  1  0
 11 12  1  0
 12 13  1  0
 13 14  1  0
 14 15  1  0
 15 11  1  0
 16 17  2  0
 17 18  1  0
 18 19  2  0
 19 20  1  0
 19 21  1  0
 21 22  1  0
 21 23  2  0
 22 24  1  0
 23 16  1  0
M  END
> <CMPD_CHEMBLID>
CHEMBL1241768

> <STANDARD_TYPE>
IC50

> <RELATION>
=

> <STANDARD_VALUE>
17

> <STANDARD_UNITS>
nM

> <Molecular_Weight>
331.75696

$$$$

  SciTegic11272012012D

 26 29  0  0  0  0            999 V2000
    1.2861   -0.7425    0.0000 C   0  0
    0.7144   -0.4125    0.0000 C   0  0
    0.7144    0.4125    0.0000 C   0  0
    0.0000    0.8250    0.0000 C   0  0
    0.0000    1.6500    0.0000 C   0  0
   -0.7145    2.0625    0.0000 C   0  0
   -0.7162    2.8879    0.0000 N   0  0
   -1.4317    3.2997    0.0000 C   0  0
   -2.0027    2.9687    0.0000 O   0  0
   -1.4334    4.1251    0.0000 C   0  0
   -1.8458    4.7893    0.0000 C   0  0
   -1.0208    4.7893    0.0000 C   0  0
   -1.4290    1.6500    0.0000 N   0  0
   -1.4290    0.8250    0.0000 C   0  0
   -0.7144    0.4125    0.0000 C   0  0
   -0.7144   -0.4125    0.0000 N   0  0
    0.0000   -0.8250    0.0000 C   0  0
    0.0000   -1.6504    0.0000 C   0  0
    0.7151   -2.0618    0.0000 C   0  0
    0.7164   -2.8868    0.0000 C   0  0
    1.2885   -3.2160    0.0000 F   0  0
    0.0026   -3.3005    0.0000 C   0  0
   -0.7125   -2.8891    0.0000 C   0  0
   -0.7138   -2.0641    0.0000 C   0  0
   -1.2859   -1.7350    0.0000 Cl  0  0
   -0.2404    3.1638    0.0000 H   0  0
  1  2  1  0
  2  3  2  0
  3  4  1  0
  4  5  2  0
  5  6  1  0
  6  7  1  0
  6 13  2  0
  7  8  1  0
  7 26  1  0
  8  9  2  0
  8 10  1  0
 10 11  1  0
 11 12  1  0
 12 10  1  0
 13 14  1  0
 14 15  2  0
 15  4  1  0
 15 16  1  0
 16 17  2  0
 17  2  1  0
 17 18  1  0
 18 19  2  0
 19 20  1  0
 20 21  1  0
 20 22  2  0
 22 23  1  0
 23 24  2  0
 24 18  1  0
 24 25  1  0
M  END
> <CMPD_CHEMBLID>
CHEMBL3689685

> <STANDARD_TYPE>
Ki

> <RELATION>
=

> <STANDARD_VALUE>
17

> <STANDARD_UNITS>
nM

> <Molecular_Weight>
355.7933

$$$$

  SciTegic11272012012D

 22 25  0  0  0  0            999 V2000
    0.8551   -1.9812    0.0000 O   0  0
    1.4273   -1.6521    0.0000 C   0  0
    1.4285   -0.8267    0.0000 N   0  0
    0.7144   -0.4125    0.0000 C   0  0
    0.7144    0.4125    0.0000 C   0  0
    0.0000    0.8250    0.0000 C   0  0
    0.0000    1.6500    0.0000 C   0  0
   -0.7145    2.0625    0.0000 C   0  0
   -1.4290    1.6500    0.0000 C   0  0
   -1.4290    0.8250    0.0000 C   0  0
   -0.7144    0.4125    0.0000 C   0  0
   -0.7144   -0.4125    0.0000 C   0  0
    0.0000   -0.8250    0.0000 N   0  0
   -2.1438    2.0627    0.0000 N   0  0
   -2.2209    2.8770    0.0000 C   0  0
   -3.0282    3.0473    0.0000 C   0  0
   -3.4395    2.3322    0.0000 C   0  0
   -2.8865    1.7200    0.0000 C   0  0
    2.1413   -2.0663    0.0000 C   0  0
    2.5103   -2.7557    0.0000 C   0  0
    2.9228   -2.0412    0.0000 C   0  0
    1.9053   -0.5525    0.0000 H   0  0
  1  2  2  0
  2  3  1  0
  2 19  1  0
  3  4  1  0
  3 22  1  0
  4  5  2  0
  5  6  1  0
  6  7  2  0
  7  8  1  0
  8  9  2  0
  9 10  1  0
  9 14  1  0
 10 11  2  0
 11  6  1  0
 11 12  1  0
 12 13  2  0
 13  4  1  0
 14 15  1  0
 15 16  1  0
 16 17  1  0
 17 18  1  0
 18 14  1  0
 19 20  1  0
 20 21  1  0
 21 19  1  0
M  END
> <CMPD_CHEMBLID>
CHEMBL3685026

> <STANDARD_TYPE>
Ki

> <RELATION>
=

> <STANDARD_VALUE>
17

> <STANDARD_UNITS>
nM

> <Molecular_Weight>
281.35226

$$$$

  SciTegic11272012012D

 35 38  0  0  0  0            999 V2000
    6.2869    0.5129    0.0000 C   0  0
    5.7139    0.8406    0.0000 C   0  0
    5.0005    0.4254    0.0000 C   0  0
    4.2840    0.8352    0.0000 P   0  0
    4.2815    1.4952    0.0000 O   0  0
    5.0105    1.2597    0.0000 C   0  0
    5.0067    2.0851    0.0000 C   0  0
    5.5766    2.4181    0.0000 C   0  0
    3.5706    0.4200    0.0000 C   0  0
    3.5734   -0.4050    0.0000 C   0  0
    2.8604   -0.8200    0.0000 C   0  0
    2.1444   -0.4100    0.0000 C   0  0
    1.4302   -0.8237    0.0000 N   0  0
    0.7144   -0.4125    0.0000 C   0  0
    0.7144    0.4125    0.0000 N   0  0
    0.0000    0.8250    0.0000 C   0  0
   -0.7144    0.4125    0.0000 N   0  0
   -0.7144   -0.4125    0.0000 C   0  0
    0.0000   -0.8250    0.0000 C   0  0
   -0.1713   -1.6316    0.0000 N   0  0
   -0.9918   -1.7178    0.0000 C   0  0
   -1.3273   -0.9641    0.0000 N   0  0
   -2.1336   -0.7943    0.0000 C   0  0
   -2.6852   -1.4084    0.0000 C   0  0
   -3.4930   -1.2383    0.0000 C   0  0
   -4.0452   -1.8513    0.0000 C   0  0
   -3.8413   -2.4790    0.0000 C   0  0
   -4.8521   -1.6797    0.0000 C   0  0
   -5.1069   -0.8950    0.0000 C   0  0
   -4.5548   -0.2820    0.0000 C   0  0
   -3.7478   -0.4536    0.0000 C   0  0
   -3.3061    0.0367    0.0000 C   0  0
    2.1416    0.4150    0.0000 C   0  0
    2.8546    0.8300    0.0000 C   0  0
    1.4311   -1.3737    0.0000 H   0  0
  1  2  1  0
  2  3  1  0
  3  4  1  0
  4  5  2  0
  4  6  1  0
  4  9  1  0
  6  7  1  0
  7  8  1  0
  9 10  2  0
 10 11  1  0
 11 12  2  0
 12 13  1  0
 12 33  1  0
 13 14  1  0
 13 35  1  0
 14 15  2  0
 15 16  1  0
 16 17  2  0
 17 18  1  0
 18 19  2  0
 19 14  1  0
 19 20  1  0
 20 21  2  0
 21 22  1  0
 22 18  1  0
 22 23  1  0
 23 24  2  0
 24 25  1  0
 25 26  2  0
 26 27  1  0
 26 28  1  0
 28 29  2  0
 29 30  1  0
 30 31  2  0
 31 25  1  0
 31 32  1  0
 33 34  2  0
 34  9  1  0
M  END
> <CMPD_CHEMBLID>
CHEMBL454872

> <STANDARD_TYPE>
IC50

> <RELATION>
=

> <STANDARD_VALUE>
17.3

> <STANDARD_UNITS>
nM

> <Molecular_Weight>
473.54964

$$$$

  SciTegic11272012012D

 42 45  0  0  0  0            999 V2000
    6.1148   -2.4386    0.0000 C   0  0
    5.4583   -2.5062    0.0000 N   0  0
    4.9740   -1.8377    0.0000 C   0  0
    5.2435   -1.2352    0.0000 O   0  0
    4.1543   -1.9222    0.0000 C   0  0
    3.7418   -2.6366    0.0000 N   0  0
    2.9349   -2.4651    0.0000 C   0  0
    2.8591   -1.6507    0.0000 C   0  0
    2.1442   -1.2379    0.0000 C   0  0
    1.4293   -0.8252    0.0000 C   0  0
    0.7144   -0.4125    0.0000 C   0  0
    0.7144    0.4125    0.0000 C   0  0
    0.0000    0.8250    0.0000 C   0  0
   -0.7144    0.4125    0.0000 C   0  0
   -0.7144   -0.4125    0.0000 C   0  0
    0.0000   -0.8250    0.0000 C   0  0
    0.0000   -1.4850    0.0000 C   0  0
   -0.0017    1.6504    0.0000 C   0  0
    0.5693    1.9814    0.0000 O   0  0
   -0.7171    2.0622    0.0000 N   0  0
   -0.7188    2.8876    0.0000 C   0  0
   -1.4334    3.3002    0.0000 C   0  0
   -1.4334    4.1252    0.0000 C   0  0
   -0.7189    4.5377    0.0000 C   0  0
   -0.7206    5.3631    0.0000 C   0  0
   -1.4361    5.7748    0.0000 N   0  0
   -1.4390    6.5998    0.0000 C   0  0
   -2.1549    7.0098    0.0000 C   0  0
   -2.8679    6.5948    0.0000 N   0  0
   -3.4407    6.9228    0.0000 C   0  0
   -2.8651    5.7698    0.0000 C   0  0
   -2.1492    5.3599    0.0000 C   0  0
   -0.0044    4.1252    0.0000 C   0  0
   -0.0044    3.3002    0.0000 C   0  0
    0.7104    4.5379    0.0000 C   0  0
    0.7108    5.1979    0.0000 F   0  0
    1.2819    4.2078    0.0000 F   0  0
    1.2822    4.8677    0.0000 F   0  0
    3.6023   -1.3091    0.0000 N   0  0
    3.7357   -0.6627    0.0000 C   0  0
   -1.1930    1.7863    0.0000 H   0  0
    5.2337   -3.0083    0.0000 H   0  0
  1  2  1  0
  2  3  1  0
  2 42  1  0
  3  4  2  0
  3  5  1  0
  5  6  2  0
  6  7  1  0
  7  8  2  0
  8  9  1  0
  8 39  1  0
  9 10  3  0
 10 11  1  0
 11 12  2  0
 12 13  1  0
 13 14  2  0
 13 18  1  0
 14 15  1  0
 15 16  2  0
 16 11  1  0
 16 17  1  0
 18 19  2  0
 18 20  1  0
 20 21  1  0
 20 41  1  0
 21 22  2  0
 22 23  1  0
 23 24  2  0
 24 25  1  0
 24 33  1  0
 25 26  1  0
 26 27  1  0
 27 28  1  0
 28 29  1  0
 29 30  1  0
 29 31  1  0
 31 32  1  0
 32 26  1  0
 33 34  2  0
 33 35  1  0
 34 21  1  0
 35 36  1  0
 35 37  1  0
 35 38  1  0
 39  5  1  0
 39 40  1  0
M  END
> <CMPD_CHEMBLID>
CHEMBL1784635

> <STANDARD_TYPE>
IC50

> <RELATION>
=

> <STANDARD_VALUE>
17.4

> <STANDARD_UNITS>
nM

> <Molecular_Weight>
552.59065

$$$$

  SciTegic11272012012D

 34 37  0  0  0  0            999 V2000
    1.4276   -1.4867    0.0000 C   0  0
    1.4285   -0.8267    0.0000 N   0  0
    2.0006   -0.4977    0.0000 C   0  0
    0.7144   -0.4125    0.0000 C   0  0
    0.7144    0.4125    0.0000 N   0  0
    0.0000    0.8250    0.0000 C   0  0
    0.0017    1.6504    0.0000 N   0  0
    0.7171    2.0622    0.0000 C   0  0
    0.7201    2.8872    0.0000 C   0  0
    1.4359    3.2972    0.0000 C   0  0
    2.1490    2.8823    0.0000 C   0  0
    2.1461    2.0573    0.0000 C   0  0
    1.4302    1.6472    0.0000 C   0  0
    2.8653    3.2925    0.0000 P   0  0
    2.8680    3.9525    0.0000 O   0  0
    3.4356    2.9604    0.0000 C   0  0
    3.4381    3.6203    0.0000 C   0  0
   -0.7144    0.4125    0.0000 C   0  0
   -1.4986    0.6674    0.0000 N   0  0
   -1.9836    0.0000    0.0000 C   0  0
   -1.4986   -0.6674    0.0000 N   0  0
   -1.7547   -1.4507    0.0000 C   0  0
   -2.5623   -1.6213    0.0000 C   0  0
   -2.8189   -2.4059    0.0000 C   0  0
   -3.6259   -2.5776    0.0000 C   0  0
   -4.0676   -2.0872    0.0000 C   0  0
   -3.8807   -3.3623    0.0000 C   0  0
   -3.3285   -3.9752    0.0000 C   0  0
   -2.5216   -3.8036    0.0000 C   0  0
   -2.2668   -3.0189    0.0000 C   0  0
   -1.6212   -2.8816    0.0000 C   0  0
   -0.7144   -0.4125    0.0000 C   0  0
    0.0000   -0.8250    0.0000 N   0  0
   -0.4742    1.9263    0.0000 H   0  0
  1  2  1  0
  2  3  1  0
  2  4  1  0
  4  5  2  0
  5  6  1  0
  6  7  1  0
  6 18  2  0
  7  8  1  0
  7 34  1  0
  8  9  2  0
  9 10  1  0
 10 11  2  0
 11 12  1  0
 11 14  1  0
 12 13  2  0
 13  8  1  0
 14 15  2  0
 14 16  1  0
 14 17  1  0
 18 19  1  0
 19 20  2  0
 20 21  1  0
 21 22  1  0
 21 32  1  0
 22 23  2  0
 23 24  1  0
 24 25  2  0
 25 26  1  0
 25 27  1  0
 27 28  2  0
 28 29  1  0
 29 30  2  0
 30 24  1  0
 30 31  1  0
 32 18  1  0
 32 33  2  0
 33  4  1  0
M  END
> <CMPD_CHEMBLID>
CHEMBL454873

> <STANDARD_TYPE>
IC50

> <RELATION>
=

> <STANDARD_VALUE>
17.6

> <STANDARD_UNITS>
nM

> <Molecular_Weight>
460.51112

$$$$

  SciTegic11272012012D

 42 45  0  0  0  0            999 V2000
    1.2861   -0.7425    0.0000 C   0  0
    0.7144   -0.4125    0.0000 N   0  0
    0.7144    0.4125    0.0000 C   0  0
    0.0000    0.8250    0.0000 C   0  0
   -0.7144    0.4125    0.0000 N   0  0
   -1.4302    0.8237    0.0000 C   0  0
   -2.1444    0.4100    0.0000 C   0  0
   -2.1416   -0.4150    0.0000 C   0  0
   -2.8546   -0.8300    0.0000 C   0  0
   -3.5706   -0.4200    0.0000 C   0  0
   -4.2849   -0.8337    0.0000 N   0  0
   -5.0006   -0.4225    0.0000 C   0  0
   -5.0017    0.2375    0.0000 O   0  0
   -5.7149   -0.8362    0.0000 C   0  0
   -6.4307   -0.4261    0.0000 C   0  0
   -7.1438   -0.8411    0.0000 C   0  0
   -7.1409   -1.6661    0.0000 C   0  0
   -7.7114   -1.9980    0.0000 C   0  0
   -6.4251   -2.0761    0.0000 C   0  0
   -5.7120   -1.6612    0.0000 C   0  0
   -6.4223   -2.9016    0.0000 C   0  0
   -6.4194   -3.7270    0.0000 C   0  0
   -6.4166   -4.5524    0.0000 C   0  0
   -7.1296   -4.9674    0.0000 C   0  0
   -7.1268   -5.7924    0.0000 C   0  0
   -6.4109   -6.2024    0.0000 C   0  0
   -6.4064   -7.0279    0.0000 N   0  0
   -5.6895   -7.4371    0.0000 C   0  0
   -5.6859   -8.0971    0.0000 O   0  0
   -5.1196   -7.1042    0.0000 C   0  0
   -5.6979   -5.7875    0.0000 N   0  0
   -5.7007   -4.9625    0.0000 C   0  0
   -3.5734    0.4050    0.0000 C   0  0
   -2.8604    0.8200    0.0000 C   0  0
   -2.8633    1.6454    0.0000 C   0  0
   -3.4358    1.9738    0.0000 F   0  0
   -2.2927    1.9772    0.0000 F   0  0
   -2.8653    2.3054    0.0000 F   0  0
   -0.7144   -0.4125    0.0000 C   0  0
    0.0000   -0.8250    0.0000 C   0  0
   -6.8812   -7.3053    0.0000 H   0  0
   -4.2839   -1.3837    0.0000 H   0  0
  1  2  1  0
  2  3  1  0
  3  4  1  0
  4  5  1  0
  5  6  1  0
  5 39  1  0
  6  7  1  0
  7  8  2  0
  8  9  1  0
  9 10  2  0
 10 11  1  0
 10 33  1  0
 11 12  1  0
 11 42  1  0
 12 13  2  0
 12 14  1  0
 14 15  2  0
 15 16  1  0
 16 17  2  0
 17 18  1  0
 17 19  1  0
 19 20  2  0
 19 21  1  0
 20 14  1  0
 21 22  3  0
 22 23  1  0
 23 24  2  0
 24 25  1  0
 25 26  2  0
 26 27  1  0
 26 31  1  0
 27 28  1  0
 27 41  1  0
 28 29  2  0
 28 30  1  0
 31 32  2  0
 32 23  1  0
 33 34  2  0
 34  7  1  0
 34 35  1  0
 35 36  1  0
 35 37  1  0
 35 38  1  0
 39 40  1  0
 40  2  1  0
M  END
> <CMPD_CHEMBLID>
CHEMBL1784627

> <STANDARD_TYPE>
IC50

> <RELATION>
=

> <STANDARD_VALUE>
18

> <STANDARD_UNITS>
nM

> <Molecular_Weight>
549.58671

$$$$

  SciTegic11272012012D

 41 45  0  0  0  0            999 V2000
    7.8485    4.3779    0.0000 C   0  0
    7.8508    3.7179    0.0000 N   0  0
    8.5667    3.3079    0.0000 C   0  0
    8.5696    2.4829    0.0000 C   0  0
    7.8566    2.0679    0.0000 N   0  0
    7.8578    1.2424    0.0000 C   0  0
    7.1438    0.8282    0.0000 C   0  0
    6.4293    1.2407    0.0000 C   0  0
    5.7149    0.8282    0.0000 C   0  0
    5.7148    0.0032    0.0000 C   0  0
    5.0008   -0.4110    0.0000 N   0  0
    5.0020   -1.2364    0.0000 C   0  0
    5.5742   -1.5655    0.0000 O   0  0
    4.2880   -1.6507    0.0000 C   0  0
    4.2880   -2.4756    0.0000 C   0  0
    3.5735   -2.8881    0.0000 C   0  0
    2.8590   -2.4756    0.0000 C   0  0
    2.2875   -2.8056    0.0000 C   0  0
    2.8590   -1.6507    0.0000 C   0  0
    3.5735   -1.2382    0.0000 C   0  0
    2.1442   -1.2379    0.0000 C   0  0
    1.4293   -0.8252    0.0000 C   0  0
    0.7144   -0.4125    0.0000 C   0  0
    0.7144    0.4125    0.0000 C   0  0
    0.0000    0.8250    0.0000 N   0  0
   -0.7144    0.4125    0.0000 C   0  0
   -1.4986    0.6674    0.0000 N   0  0
   -1.9836    0.0000    0.0000 C   0  0
   -1.4986   -0.6674    0.0000 N   0  0
   -0.7144   -0.4125    0.0000 C   0  0
    0.0000   -0.8250    0.0000 C   0  0
    6.4294   -0.4093    0.0000 C   0  0
    7.1438    0.0032    0.0000 C   0  0
    7.8587   -0.4095    0.0000 C   0  0
    7.8591   -1.0695    0.0000 F   0  0
    8.4301   -0.0793    0.0000 F   0  0
    8.4304   -0.7392    0.0000 F   0  0
    7.1407    2.4780    0.0000 C   0  0
    7.1378    3.3030    0.0000 C   0  0
   -1.6685    1.1905    0.0000 H   0  0
    4.5241   -0.1368    0.0000 H   0  0
  1  2  1  0
  2  3  1  0
  3  4  1  0
  4  5  1  0
  5  6  1  0
  5 38  1  0
  6  7  1  0
  7  8  2  0
  8  9  1  0
  9 10  2  0
 10 11  1  0
 10 32  1  0
 11 12  1  0
 11 41  1  0
 12 13  2  0
 12 14  1  0
 14 15  2  0
 15 16  1  0
 16 17  2  0
 17 18  1  0
 17 19  1  0
 19 20  2  0
 19 21  1  0
 20 14  1  0
 21 22  3  0
 22 23  1  0
 23 24  2  0
 24 25  1  0
 25 26  2  0
 26 27  1  0
 27 28  1  0
 27 40  1  0
 28 29  2  0
 29 30  1  0
 30 26  1  0
 30 31  2  0
 31 23  1  0
 32 33  2  0
 33  7  1  0
 33 34  1  0
 34 35  1  0
 34 36  1  0
 34 37  1  0
 38 39  1  0
 39  2  1  0
M  END
> <CMPD_CHEMBLID>
CHEMBL1171657

> <STANDARD_TYPE>
IC50

> <RELATION>
=

> <STANDARD_VALUE>
18

> <STANDARD_UNITS>
nM

> <Molecular_Weight>
532.55949

$$$$

  SciTegic11272012012D

 40 43  0  0  0  0            999 V2000
    3.4313   -0.4904    0.0000 C   0  0
    2.8601   -0.8213    0.0000 N   0  0
    2.8613   -1.4813    0.0000 C   0  0
    2.1444   -0.4100    0.0000 N   0  0
    1.4302   -0.8237    0.0000 N   0  0
    0.7144   -0.4125    0.0000 C   0  0
    0.7144    0.4125    0.0000 C   0  0
    0.0000    0.8250    0.0000 C   0  0
   -0.7144    0.4125    0.0000 C   0  0
   -0.7144   -0.4125    0.0000 C   0  0
    0.0000   -0.8250    0.0000 C   0  0
    0.0000   -1.6504    0.0000 C   0  0
   -0.5713   -1.9808    0.0000 F   0  0
    0.5717   -1.9803    0.0000 F   0  0
    0.0003   -2.3104    0.0000 F   0  0
   -1.4302    0.8237    0.0000 C   0  0
   -1.4313    1.4837    0.0000 O   0  0
   -2.1444    0.4100    0.0000 N   0  0
   -2.8601    0.8213    0.0000 C   0  0
   -3.5746    0.4088    0.0000 C   0  0
   -4.2892    0.8213    0.0000 C   0  0
   -4.2892    1.6463    0.0000 C   0  0
   -4.8608    1.9762    0.0000 C   0  0
   -3.5747    2.0587    0.0000 C   0  0
   -3.5731    2.8842    0.0000 N   0  0
   -2.8576    3.2960    0.0000 C   0  0
   -2.8547    4.1210    0.0000 N   0  0
   -2.1388    4.5310    0.0000 C   0  0
   -1.4258    4.1161    0.0000 C   0  0
   -1.4286    3.2911    0.0000 C   0  0
   -2.1445    2.8810    0.0000 N   0  0
   -0.7152    2.8759    0.0000 C   0  0
    0.0014    3.2848    0.0000 C   0  0
    0.7138    2.8687    0.0000 C   0  0
    0.7096    2.0437    0.0000 C   0  0
   -0.0069    1.6348    0.0000 N   0  0
   -0.7193    2.0509    0.0000 C   0  0
   -2.8602    1.6463    0.0000 C   0  0
   -4.0489    3.1600    0.0000 H   0  0
   -2.1435   -0.1400    0.0000 H   0  0
  1  2  1  0
  2  3  1  0
  2  4  1  0
  4  5  2  0
  5  6  1  0
  6  7  2  0
  7  8  1  0
  8  9  2  0
  9 10  1  0
  9 16  1  0
 10 11  2  0
 11  6  1  0
 11 12  1  0
 12 13  1  0
 12 14  1  0
 12 15  1  0
 16 17  2  0
 16 18  1  0
 18 19  1  0
 18 40  1  0
 19 20  2  0
 20 21  1  0
 21 22  2  0
 22 23  1  0
 22 24  1  0
 24 25  1  0
 24 38  2  0
 25 26  1  0
 25 39  1  0
 26 27  2  0
 27 28  1  0
 28 29  2  0
 29 30  1  0
 30 31  2  0
 30 32  1  0
 31 26  1  0
 32 33  2  0
 33 34  1  0
 34 35  2  0
 35 36  1  0
 36 37  2  0
 37 32  1  0
 38 19  1  0
M  END
> <CMPD_CHEMBLID>
CHEMBL230178

> <STANDARD_TYPE>
IC50

> <RELATION>
=

> <STANDARD_VALUE>
18

> <STANDARD_UNITS>
nM

> <Molecular_Weight>
520.50903

$$$$

  SciTegic11272012012D

 23 26  0  0  0  0            999 V2000
    0.8551   -1.9812    0.0000 O   0  0
    1.4273   -1.6521    0.0000 C   0  0
    1.4285   -0.8267    0.0000 N   0  0
    0.7144   -0.4125    0.0000 C   0  0
    0.7144    0.4125    0.0000 C   0  0
    0.0000    0.8250    0.0000 C   0  0
    0.0000    1.6500    0.0000 C   0  0
   -0.7145    2.0625    0.0000 C   0  0
   -1.4290    1.6500    0.0000 C   0  0
   -1.4290    0.8250    0.0000 C   0  0
   -0.7144    0.4125    0.0000 C   0  0
   -0.7144   -0.4125    0.0000 C   0  0
    0.0000   -0.8250    0.0000 N   0  0
   -2.1438    2.0627    0.0000 C   0  0
   -2.1452    2.8877    0.0000 C   0  0
   -2.8603    3.2991    0.0000 N   0  0
   -3.5741    2.8855    0.0000 C   0  0
   -3.5728    2.0605    0.0000 C   0  0
   -2.8576    1.6491    0.0000 N   0  0
    2.1413   -2.0663    0.0000 C   0  0
    2.5103   -2.7557    0.0000 C   0  0
    2.9228   -2.0412    0.0000 C   0  0
    1.9053   -0.5525    0.0000 H   0  0
  1  2  2  0
  2  3  1  0
  2 20  1  0
  3  4  1  0
  3 23  1  0
  4  5  2  0
  5  6  1  0
  6  7  2  0
  7  8  1  0
  8  9  2  0
  9 10  1  0
  9 14  1  0
 10 11  2  0
 11  6  1  0
 11 12  1  0
 12 13  2  0
 13  4  1  0
 14 15  2  0
 15 16  1  0
 16 17  2  0
 17 18  1  0
 18 19  2  0
 19 14  1  0
 20 21  1  0
 21 22  1  0
 22 20  1  0
M  END
> <CMPD_CHEMBLID>
CHEMBL3685120

> <STANDARD_TYPE>
Ki

> <RELATION>
=

> <STANDARD_VALUE>
18

> <STANDARD_UNITS>
nM

> <Molecular_Weight>
290.31926

$$$$

  SciTegic11272012012D

 27 29  0  0  0  0            999 V2000
    2.5619   -3.0003    0.0000 C   0  0
    2.2308   -2.4294    0.0000 O   0  0
    1.4053   -2.4306    0.0000 C   0  0
    1.0763   -3.0028    0.0000 O   0  0
    0.9918   -1.7178    0.0000 C   0  0
    1.3273   -0.9642    0.0000 C   0  0
    0.7145   -0.4125    0.0000 C   0  0
    0.7145    0.4125    0.0000 C   0  0
    0.0000    0.8250    0.0000 C   0  0
   -0.0017    1.6505    0.0000 N   0  0
   -0.7172    2.0622    0.0000 C   0  0
   -1.2882    1.7312    0.0000 O   0  0
   -0.7189    2.8876    0.0000 C   0  0
   -1.4334    3.3002    0.0000 C   0  0
   -2.0049    2.9702    0.0000 F   0  0
   -1.4334    4.1252    0.0000 C   0  0
   -0.7189    4.5377    0.0000 C   0  0
   -0.0044    4.1252    0.0000 C   0  0
   -0.0044    3.3002    0.0000 C   0  0
    0.7114    2.8890    0.0000 O   0  0
    1.2825    3.2198    0.0000 C   0  0
   -0.7145    0.4125    0.0000 C   0  0
   -0.7145   -0.4125    0.0000 N   0  0
    0.0000   -0.8250    0.0000 C   0  0
    0.1713   -1.6316    0.0000 N   0  0
   -0.1967   -2.0403    0.0000 H   0  0
    0.4741    1.9263    0.0000 H   0  0
  1  2  1  0
  2  3  1  0
  3  4  2  0
  3  5  1  0
  5  6  2  0
  6  7  1  0
  7  8  2  0
  8  9  1  0
  9 10  1  0
  9 22  2  0
 10 11  1  0
 10 27  1  0
 11 12  2  0
 11 13  1  0
 13 14  2  0
 14 15  1  0
 14 16  1  0
 16 17  2  0
 17 18  1  0
 18 19  2  0
 19 13  1  0
 19 20  1  0
 20 21  1  0
 22 23  1  0
 23 24  2  0
 24  7  1  0
 24 25  1  0
 25  5  1  0
 25 26  1  0
M  END
> <CMPD_CHEMBLID>
CHEMBL3347624

> <STANDARD_TYPE>
IC50

> <RELATION>
=

> <STANDARD_VALUE>
18.28

> <STANDARD_UNITS>
nM

> <Molecular_Weight>
343.30916

$$$$

  SciTegic11272012012D

 26 29  0  0  0  0            999 V2000
    2.1456    0.2461    0.0000 C   0  0
    2.1445   -0.4139    0.0000 C   0  0
    2.8583   -0.8275    0.0000 C   0  0
    2.8570   -1.6525    0.0000 C   0  0
    2.1419   -2.0639    0.0000 C   0  0
    2.1408   -2.7239    0.0000 F   0  0
    1.4281   -1.6502    0.0000 C   0  0
    1.4293   -0.8252    0.0000 C   0  0
    0.7145   -0.4125    0.0000 C   0  0
    0.7145    0.4125    0.0000 C   0  0
    0.0000    0.8250    0.0000 C   0  0
    0.0000    1.4850    0.0000 C   0  0
   -0.7145    0.4125    0.0000 C   0  0
   -1.4290    0.8250    0.0000 C   0  0
   -2.1434    0.4125    0.0000 C   0  0
   -2.8592    0.8237    0.0000 N   0  0
   -3.5735    0.4100    0.0000 C   0  0
   -3.5723   -0.2500    0.0000 O   0  0
   -4.2892    0.8213    0.0000 C   0  0
   -5.0706    0.7961    0.0000 C   0  0
   -4.6581    1.5106    0.0000 C   0  0
   -2.1434   -0.4125    0.0000 N   0  0
   -1.4290   -0.8250    0.0000 C   0  0
   -0.7145   -0.4125    0.0000 C   0  0
    0.0000   -0.8250    0.0000 N   0  0
   -2.8601    1.3738    0.0000 H   0  0
  1  2  1  0
  2  3  2  0
  3  4  1  0
  4  5  2  0
  5  6  1  0
  5  7  1  0
  7  8  2  0
  8  2  1  0
  8  9  1  0
  9 10  2  0
 10 11  1  0
 11 12  1  0
 11 13  2  0
 13 14  1  0
 14 15  2  0
 15 16  1  0
 15 22  1  0
 16 17  1  0
 16 26  1  0
 17 18  2  0
 17 19  1  0
 19 20  1  0
 20 21  1  0
 21 19  1  0
 22 23  2  0
 23 24  1  0
 24 13  1  0
 24 25  2  0
 25  9  1  0
M  END
> <CMPD_CHEMBLID>
CHEMBL3689686

> <STANDARD_TYPE>
Ki

> <RELATION>
=

> <STANDARD_VALUE>
19

> <STANDARD_UNITS>
nM

> <Molecular_Weight>
335.37482

$$$$

  SciTegic11272012012D

 24 26  0  0  0  0            999 V2000
    2.5619   -3.0003    0.0000 C   0  0
    2.2308   -2.4294    0.0000 O   0  0
    1.4053   -2.4306    0.0000 C   0  0
    1.0763   -3.0028    0.0000 O   0  0
    0.9918   -1.7178    0.0000 C   0  0
    1.3273   -0.9642    0.0000 C   0  0
    0.7145   -0.4125    0.0000 C   0  0
    0.7145    0.4125    0.0000 C   0  0
    0.0000    0.8250    0.0000 C   0  0
   -0.0017    1.6505    0.0000 N   0  0
   -0.7172    2.0622    0.0000 C   0  0
   -0.7189    2.8876    0.0000 C   0  0
   -0.0044    3.3002    0.0000 C   0  0
   -0.0044    4.1252    0.0000 C   0  0
   -0.7189    4.5377    0.0000 C   0  0
   -1.4334    4.1252    0.0000 C   0  0
   -1.4334    3.3002    0.0000 C   0  0
   -2.0049    2.9702    0.0000 C   0  0
   -0.7145    0.4125    0.0000 C   0  0
   -0.7145   -0.4125    0.0000 N   0  0
    0.0000   -0.8250    0.0000 C   0  0
    0.1713   -1.6316    0.0000 N   0  0
   -0.1967   -2.0403    0.0000 H   0  0
    0.4741    1.9263    0.0000 H   0  0
  1  2  1  0
  2  3  1  0
  3  4  2  0
  3  5  1  0
  5  6  2  0
  6  7  1  0
  7  8  2  0
  8  9  1  0
  9 10  1  0
  9 19  2  0
 10 11  1  0
 10 24  1  0
 11 12  1  0
 12 13  2  0
 13 14  1  0
 14 15  2  0
 15 16  1  0
 16 17  2  0
 17 12  1  0
 17 18  1  0
 19 20  1  0
 20 21  2  0
 21  7  1  0
 21 22  1  0
 22  5  1  0
 22 23  1  0
M  END
> <CMPD_CHEMBLID>
CHEMBL3347452

> <STANDARD_TYPE>
IC50

> <RELATION>
=

> <STANDARD_VALUE>
19

> <STANDARD_UNITS>
nM

> <Molecular_Weight>
295.33578

$$$$

  SciTegic11272012012D

 41 45  0  0  0  0            999 V2000
    7.8486    4.3779    0.0000 C   0  0
    7.8509    3.7179    0.0000 N   0  0
    8.5668    3.3079    0.0000 C   0  0
    8.5697    2.4829    0.0000 C   0  0
    7.8566    2.0679    0.0000 N   0  0
    7.8578    1.2424    0.0000 C   0  0
    7.1438    0.8282    0.0000 C   0  0
    6.4293    1.2407    0.0000 C   0  0
    5.7149    0.8282    0.0000 C   0  0
    5.7148    0.0032    0.0000 C   0  0
    5.0008   -0.4110    0.0000 N   0  0
    5.0020   -1.2365    0.0000 C   0  0
    5.5742   -1.5655    0.0000 O   0  0
    4.2880   -1.6507    0.0000 C   0  0
    4.2880   -2.4757    0.0000 C   0  0
    3.5735   -2.8882    0.0000 C   0  0
    2.8591   -2.4757    0.0000 C   0  0
    2.2875   -2.8057    0.0000 C   0  0
    2.8591   -1.6507    0.0000 C   0  0
    3.5735   -1.2382    0.0000 C   0  0
    2.1442   -1.2379    0.0000 C   0  0
    1.4293   -0.8252    0.0000 C   0  0
    0.7144   -0.4125    0.0000 C   0  0
    0.7144    0.4125    0.0000 C   0  0
    0.0000    0.8250    0.0000 N   0  0
   -0.7144    0.4125    0.0000 C   0  0
   -1.4986    0.6674    0.0000 N   0  0
   -1.9836    0.0000    0.0000 C   0  0
   -1.4986   -0.6674    0.0000 C   0  0
   -0.7144   -0.4125    0.0000 C   0  0
    0.0000   -0.8250    0.0000 C   0  0
    6.4294   -0.4093    0.0000 C   0  0
    7.1438    0.0032    0.0000 C   0  0
    7.8587   -0.4095    0.0000 C   0  0
    7.8592   -1.0695    0.0000 F   0  0
    8.4302   -0.0793    0.0000 F   0  0
    8.4305   -0.7392    0.0000 F   0  0
    7.1407    2.4780    0.0000 C   0  0
    7.1378    3.3030    0.0000 C   0  0
   -1.6685    1.1905    0.0000 H   0  0
    4.5241   -0.1368    0.0000 H   0  0
  1  2  1  0
  2  3  1  0
  3  4  1  0
  4  5  1  0
  5  6  1  0
  5 38  1  0
  6  7  1  0
  7  8  2  0
  8  9  1  0
  9 10  2  0
 10 11  1  0
 10 32  1  0
 11 12  1  0
 11 41  1  0
 12 13  2  0
 12 14  1  0
 14 15  2  0
 15 16  1  0
 16 17  2  0
 17 18  1  0
 17 19  1  0
 19 20  2  0
 19 21  1  0
 20 14  1  0
 21 22  3  0
 22 23  1  0
 23 24  2  0
 24 25  1  0
 25 26  2  0
 26 27  1  0
 27 28  1  0
 27 40  1  0
 28 29  2  0
 29 30  1  0
 30 26  1  0
 30 31  2  0
 31 23  1  0
 32 33  2  0
 33  7  1  0
 33 34  1  0
 34 35  1  0
 34 36  1  0
 34 37  1  0
 38 39  1  0
 39  2  1  0
M  END
> <CMPD_CHEMBLID>
CHEMBL1171479

> <STANDARD_TYPE>
IC50

> <RELATION>
=

> <STANDARD_VALUE>
19

> <STANDARD_UNITS>
nM

> <Molecular_Weight>
531.57143

$$$$

  SciTegic11272012012D

 43 47  0  0  0  0            999 V2000
   -2.4959   -2.6711    0.0000 C   0  0
   -2.2921   -3.2988    0.0000 C   0  0
   -2.8442   -3.9117    0.0000 C   0  0
   -2.5894   -4.6964    0.0000 C   0  0
   -1.7825   -4.8681    0.0000 C   0  0
   -1.2303   -4.2551    0.0000 C   0  0
   -1.4851   -3.4705    0.0000 C   0  0
   -0.9327   -2.8571    0.0000 C   0  0
   -0.3802   -2.2438    0.0000 C   0  0
    0.1713   -1.6316    0.0000 C   0  0
    0.9918   -1.7178    0.0000 C   0  0
    1.3273   -0.9641    0.0000 N   0  0
    0.7144   -0.4125    0.0000 C   0  0
    0.7144    0.4125    0.0000 C   0  0
    0.0000    0.8250    0.0000 C   0  0
   -0.7144    0.4125    0.0000 C   0  0
   -0.7144   -0.4125    0.0000 C   0  0
    0.0000   -0.8250    0.0000 N   0  0
   -1.5260   -5.6527    0.0000 C   0  0
   -1.9668   -6.1438    0.0000 O   0  0
   -0.7184   -5.8233    0.0000 N   0  0
   -0.4618   -6.6079    0.0000 C   0  0
    0.3452   -6.7796    0.0000 C   0  0
    0.5999   -7.5643    0.0000 C   0  0
    0.0478   -8.1772    0.0000 C   0  0
    0.3044   -8.9618    0.0000 C   0  0
    1.1120   -9.1325    0.0000 N   0  0
    1.3695   -9.9162    0.0000 C   0  0
    2.1771  -10.0851    0.0000 C   0  0
    2.7271   -9.4702    0.0000 N   0  0
    3.5354   -9.6375    0.0000 C   0  0
    4.0849   -9.0215    0.0000 C   0  0
    4.8932   -9.1888    0.0000 O   0  0
    2.4696   -8.6864    0.0000 C   0  0
    1.6621   -8.5175    0.0000 C   0  0
   -0.7591   -8.0056    0.0000 C   0  0
   -1.0139   -7.2210    0.0000 C   0  0
   -1.3116   -8.6189    0.0000 C   0  0
   -1.1081   -9.2468    0.0000 F   0  0
   -1.9571   -8.4814    0.0000 F   0  0
   -1.7535   -9.1091    0.0000 F   0  0
    5.2593   -8.7783    0.0000 H   0  0
   -0.3510   -5.4140    0.0000 H   0  0
  1  2  1  0
  2  3  2  0
  3  4  1  0
  4  5  2  0
  5  6  1  0
  5 19  1  0
  6  7  2  0
  7  2  1  0
  7  8  1  0
  8  9  3  0
  9 10  1  0
 10 11  2  0
 11 12  1  0
 12 13  2  0
 13 14  1  0
 14 15  2  0
 15 16  1  0
 16 17  2  0
 17 18  1  0
 18 10  1  0
 18 13  1  0
 19 20  2  0
 19 21  1  0
 21 22  1  0
 21 43  1  0
 22 23  2  0
 23 24  1  0
 24 25  2  0
 25 26  1  0
 25 36  1  0
 26 27  1  0
 27 28  1  0
 28 29  1  0
 29 30  1  0
 30 31  1  0
 30 34  1  0
 31 32  1  0
 32 33  1  0
 33 42  1  0
 34 35  1  0
 35 27  1  0
 36 37  2  0
 36 38  1  0
 37 22  1  0
 38 39  1  0
 38 40  1  0
 38 41  1  0
M  END
> <CMPD_CHEMBLID>
CHEMBL1171044

> <STANDARD_TYPE>
IC50

> <RELATION>
=

> <STANDARD_VALUE>
19

> <STANDARD_UNITS>
nM

> <Molecular_Weight>
561.59741

$$$$

  SciTegic11272012012D

 32 35  0  0  0  0            999 V2000
   -2.4959   -2.6711    0.0000 C   0  0
   -2.2921   -3.2988    0.0000 C   0  0
   -2.8442   -3.9118    0.0000 C   0  0
   -2.5895   -4.6964    0.0000 C   0  0
   -1.7825   -4.8682    0.0000 C   0  0
   -1.2304   -4.2551    0.0000 C   0  0
   -1.4851   -3.4705    0.0000 C   0  0
   -0.9327   -2.8571    0.0000 C   0  0
   -0.3802   -2.2438    0.0000 C   0  0
    0.1713   -1.6316    0.0000 C   0  0
    0.9918   -1.7178    0.0000 C   0  0
    1.3273   -0.9641    0.0000 N   0  0
    0.7144   -0.4125    0.0000 C   0  0
    0.7144    0.4125    0.0000 C   0  0
    0.0000    0.8250    0.0000 C   0  0
   -0.7144    0.4125    0.0000 C   0  0
   -0.7144   -0.4125    0.0000 N   0  0
    0.0000   -0.8250    0.0000 N   0  0
   -1.5260   -5.6527    0.0000 C   0  0
   -1.9668   -6.1439    0.0000 O   0  0
   -0.7184   -5.8233    0.0000 N   0  0
   -0.4618   -6.6079    0.0000 C   0  0
    0.3452   -6.7796    0.0000 C   0  0
    0.5999   -7.5643    0.0000 C   0  0
    0.0478   -8.1773    0.0000 C   0  0
   -0.7591   -8.0056    0.0000 C   0  0
   -1.0139   -7.2210    0.0000 C   0  0
   -1.3116   -8.6190    0.0000 C   0  0
   -1.1081   -9.2468    0.0000 F   0  0
   -1.9571   -8.4814    0.0000 F   0  0
   -1.7535   -9.1092    0.0000 F   0  0
   -0.3510   -5.4140    0.0000 H   0  0
  1  2  1  0
  2  3  2  0
  3  4  1  0
  4  5  2  0
  5  6  1  0
  5 19  1  0
  6  7  2  0
  7  2  1  0
  7  8  1  0
  8  9  3  0
  9 10  1  0
 10 11  2  0
 11 12  1  0
 12 13  2  0
 13 14  1  0
 14 15  2  0
 15 16  1  0
 16 17  2  0
 17 18  1  0
 18 10  1  0
 18 13  1  0
 19 20  2  0
 19 21  1  0
 21 22  1  0
 21 32  1  0
 22 23  2  0
 23 24  1  0
 24 25  2  0
 25 26  1  0
 26 27  2  0
 26 28  1  0
 27 22  1  0
 28 29  1  0
 28 30  1  0
 28 31  1  0
M  END
> <CMPD_CHEMBLID>
CHEMBL1172720

> <STANDARD_TYPE>
IC50

> <RELATION>
=

> <STANDARD_VALUE>
19

> <STANDARD_UNITS>
nM

> <Molecular_Weight>
420.38661

$$$$

  SciTegic11272012012D

 40 44  0  0  0  0            999 V2000
   -7.2817    0.5485    0.0000 C   0  0
   -7.0800   -0.0799    0.0000 N   0  0
   -7.6343   -0.6910    0.0000 C   0  0
   -7.3822   -1.4765    0.0000 C   0  0
   -6.5759   -1.6510    0.0000 N   0  0
   -6.3221   -2.4365    0.0000 C   0  0
   -5.5150   -2.6100    0.0000 C   0  0
   -4.9628   -1.9969    0.0000 C   0  0
   -4.1559   -2.1686    0.0000 C   0  0
   -3.9011   -2.9533    0.0000 C   0  0
   -3.0941   -3.1267    0.0000 N   0  0
   -2.8402   -3.9121    0.0000 C   0  0
   -3.2828   -4.4018    0.0000 O   0  0
   -2.0332   -4.0855    0.0000 C   0  0
   -1.7784   -4.8702    0.0000 C   0  0
   -0.9714   -5.0419    0.0000 C   0  0
   -0.4193   -4.4289    0.0000 C   0  0
    0.2263   -4.5662    0.0000 C   0  0
   -0.6741   -3.6442    0.0000 C   0  0
   -0.1229   -3.0297    0.0000 C   0  0
   -0.3789   -2.2450    0.0000 C   0  0
    0.1713   -1.6316    0.0000 C   0  0
    0.9918   -1.7178    0.0000 C   0  0
    1.3273   -0.9641    0.0000 N   0  0
    0.7144   -0.4125    0.0000 C   0  0
    0.7144    0.4125    0.0000 C   0  0
    0.0000    0.8250    0.0000 C   0  0
   -0.7144    0.4125    0.0000 C   0  0
   -0.7144   -0.4125    0.0000 N   0  0
    0.0000   -0.8250    0.0000 N   0  0
   -1.4810   -3.4726    0.0000 C   0  0
   -4.4533   -3.5663    0.0000 C   0  0
   -5.2602   -3.3946    0.0000 C   0  0
   -5.8126   -4.0079    0.0000 C   0  0
   -5.6092   -4.6358    0.0000 F   0  0
   -6.4582   -3.8704    0.0000 F   0  0
   -6.2546   -4.4981    0.0000 F   0  0
   -6.0216   -1.0399    0.0000 C   0  0
   -6.2737   -0.2544    0.0000 C   0  0
   -2.7252   -2.7186    0.0000 H   0  0
  1  2  1  0
  2  3  1  0
  3  4  1  0
  4  5  1  0
  5  6  1  0
  5 38  1  0
  6  7  1  0
  7  8  2  0
  8  9  1  0
  9 10  2  0
 10 11  1  0
 10 32  1  0
 11 12  1  0
 11 40  1  0
 12 13  2  0
 12 14  1  0
 14 15  2  0
 15 16  1  0
 16 17  2  0
 17 18  1  0
 17 19  1  0
 19 20  1  0
 19 31  2  0
 20 21  1  0
 21 22  1  0
 22 23  2  0
 23 24  1  0
 24 25  2  0
 25 26  1  0
 26 27  2  0
 27 28  1  0
 28 29  2  0
 29 30  1  0
 30 22  1  0
 30 25  1  0
 31 14  1  0
 32 33  2  0
 33  7  1  0
 33 34  1  0
 34 35  1  0
 34 36  1  0
 34 37  1  0
 38 39  1  0
 39  2  1  0
M  END
> <CMPD_CHEMBLID>
CHEMBL1173200

> <STANDARD_TYPE>
IC50

> <RELATION>
=

> <STANDARD_VALUE>
19

> <STANDARD_UNITS>
nM

> <Molecular_Weight>
536.59125

$$$$

  SciTegic11272012012D

 35 39  0  0  0  0            999 V2000
    1.2861   -0.7425    0.0000 C   0  0
    0.7144   -0.4125    0.0000 C   0  0
    0.7144    0.4125    0.0000 C   0  0
    0.0000    0.8250    0.0000 C   0  0
   -0.7144    0.4125    0.0000 C   0  0
   -0.7144   -0.4125    0.0000 C   0  0
   -1.4290   -0.8250    0.0000 N   0  0
   -1.4290   -1.6500    0.0000 N   0  0
   -0.7144   -2.0625    0.0000 C   0  0
   -0.7127   -2.8879    0.0000 N   0  0
    0.0027   -3.2997    0.0000 C   0  0
    0.0056   -4.1247    0.0000 C   0  0
    0.7215   -4.5347    0.0000 C   0  0
    1.4345   -4.1197    0.0000 C   0  0
    2.1517   -4.5285    0.0000 O   0  0
    2.8645   -4.1123    0.0000 C   0  0
    3.5817   -4.5211    0.0000 C   0  0
    4.2945   -4.1049    0.0000 N   0  0
    5.0401   -4.4412    0.0000 C   0  0
    5.5878   -3.8243    0.0000 C   0  0
    5.1704   -3.1127    0.0000 C   0  0
    4.3646   -3.2899    0.0000 C   0  0
    1.4317   -3.2947    0.0000 C   0  0
    0.7158   -2.8847    0.0000 C   0  0
    0.0000   -1.6500    0.0000 N   0  0
    0.0000   -0.8250    0.0000 C   0  0
    0.0000    1.6504    0.0000 C   0  0
    0.7138    2.0641    0.0000 C   0  0
    1.2859    1.7350    0.0000 Cl  0  0
    0.7125    2.8891    0.0000 C   0  0
   -0.0026    3.3005    0.0000 C   0  0
   -0.7164    2.8868    0.0000 C   0  0
   -0.7151    2.0618    0.0000 C   0  0
   -1.2862    1.7310    0.0000 Cl  0  0
   -1.1886   -3.1638    0.0000 H   0  0
  1  2  1  0
  2  3  2  0
  3  4  1  0
  4  5  2  0
  4 27  1  0
  5  6  1  0
  6  7  2  0
  7  8  1  0
  8  9  2  0
  9 10  1  0
  9 25  1  0
 10 11  1  0
 10 35  1  0
 11 12  2  0
 12 13  1  0
 13 14  2  0
 14 15  1  0
 14 23  1  0
 15 16  1  0
 16 17  1  0
 17 18  1  0
 18 19  1  0
 19 20  1  0
 20 21  1  0
 21 22  1  0
 22 18  1  0
 23 24  2  0
 24 11  1  0
 25 26  2  0
 26  2  1  0
 26  6  1  0
 27 28  2  0
 28 29  1  0
 28 30  1  0
 30 31  2  0
 31 32  1  0
 32 33  2  0
 33 27  1  0
 33 34  1  0
M  END
> <CMPD_CHEMBLID>
CHEMBL230686

> <STANDARD_TYPE>
Ki

> <RELATION>
=

> <STANDARD_VALUE>
19.4

> <STANDARD_UNITS>
nM

> <Molecular_Weight>
494.4156

$$$$

  SciTegic11272012012D

 36 40  0  0  0  0            999 V2000
   -1.6849   -2.8449    0.0000 C   0  0
   -1.4811   -3.4726    0.0000 C   0  0
   -2.0332   -4.0856    0.0000 C   0  0
   -1.7784   -4.8703    0.0000 C   0  0
   -0.9714   -5.0420    0.0000 C   0  0
   -0.4193   -4.4289    0.0000 C   0  0
    0.2263   -4.5663    0.0000 C   0  0
   -0.6741   -3.6442    0.0000 C   0  0
   -0.1229   -3.0298    0.0000 C   0  0
   -0.3790   -2.2450    0.0000 C   0  0
    0.1713   -1.6316    0.0000 N   0  0
    0.9918   -1.7178    0.0000 C   0  0
    1.3273   -0.9642    0.0000 N   0  0
    0.7145   -0.4125    0.0000 C   0  0
    0.7145    0.4125    0.0000 C   0  0
    1.4285    0.8267    0.0000 N   0  0
    1.4273    1.6522    0.0000 C   0  0
    2.1403    2.0672    0.0000 C   0  0
    2.1375    2.8922    0.0000 C   0  0
    1.4216    3.3022    0.0000 C   0  0
    0.7086    2.8873    0.0000 C   0  0
    0.7114    2.0622    0.0000 C   0  0
    1.4187    4.1277    0.0000 P   0  0
    1.9889    4.4601    0.0000 O   0  0
    0.8459    4.4555    0.0000 C   0  0
    1.4162    4.7877    0.0000 C   0  0
    0.0000    0.8250    0.0000 N   0  0
   -0.7145    0.4125    0.0000 C   0  0
   -0.7145   -0.4125    0.0000 N   0  0
    0.0000   -0.8250    0.0000 C   0  0
   -1.4293    0.8252    0.0000 N   0  0
   -1.5065    1.6396    0.0000 C   0  0
   -2.3137    1.8098    0.0000 C   0  0
   -2.7251    1.0947    0.0000 C   0  0
   -2.1721    0.4825    0.0000 C   0  0
    1.9053    0.5525    0.0000 H   0  0
  1  2  1  0
  2  3  2  0
  3  4  1  0
  4  5  2  0
  5  6  1  0
  6  7  1  0
  6  8  2  0
  8  2  1  0
  8  9  1  0
  9 10  2  0
 10 11  1  0
 11 12  1  0
 12 13  2  0
 13 14  1  0
 14 15  2  0
 15 16  1  0
 15 27  1  0
 16 17  1  0
 16 36  1  0
 17 18  2  0
 18 19  1  0
 19 20  2  0
 20 21  1  0
 20 23  1  0
 21 22  2  0
 22 17  1  0
 23 24  2  0
 23 25  1  0
 23 26  1  0
 27 28  2  0
 28 29  1  0
 28 31  1  0
 29 30  2  0
 30 11  1  0
 30 14  1  0
 31 32  1  0
 32 33  1  0
 33 34  1  0
 34 35  1  0
 35 31  1  0
M  END
> <CMPD_CHEMBLID>
CHEMBL451790

> <STANDARD_TYPE>
IC50

> <RELATION>
=

> <STANDARD_VALUE>
19.5

> <STANDARD_UNITS>
nM

> <Molecular_Weight>
486.5484

$$$$

  SciTegic11272012012D

 28 31  0  0  0  0            999 V2000
    0.7111   -2.7219    0.0000 F   0  0
    0.7125   -2.0619    0.0000 C   0  0
    0.1416   -1.7308    0.0000 F   0  0
    0.1403   -2.3907    0.0000 F   0  0
    1.4281   -1.6502    0.0000 C   0  0
    2.1419   -2.0639    0.0000 C   0  0
    2.8570   -1.6525    0.0000 C   0  0
    2.8583   -0.8275    0.0000 C   0  0
    2.1445   -0.4139    0.0000 C   0  0
    2.1456    0.2461    0.0000 Cl  0  0
    1.4293   -0.8252    0.0000 C   0  0
    0.7145   -0.4125    0.0000 C   0  0
    0.7145    0.4125    0.0000 C   0  0
    0.0000    0.8250    0.0000 C   0  0
   -0.7145    0.4125    0.0000 C   0  0
   -1.4290    0.8250    0.0000 C   0  0
   -2.1434    0.4125    0.0000 C   0  0
   -2.8591    0.8237    0.0000 N   0  0
   -3.5734    0.4100    0.0000 C   0  0
   -3.5723   -0.2500    0.0000 O   0  0
   -4.2891    0.8213    0.0000 C   0  0
   -5.0706    0.7961    0.0000 C   0  0
   -4.6581    1.5106    0.0000 C   0  0
   -2.1434   -0.4125    0.0000 N   0  0
   -1.4290   -0.8250    0.0000 C   0  0
   -0.7145   -0.4125    0.0000 C   0  0
    0.0000   -0.8250    0.0000 C   0  0
   -2.8601    1.3737    0.0000 H   0  0
  1  2  1  0
  2  3  1  0
  2  4  1  0
  2  5  1  0
  5  6  2  0
  6  7  1  0
  7  8  2  0
  8  9  1  0
  9 10  1  0
  9 11  2  0
 11  5  1  0
 11 12  1  0
 12 13  2  0
 13 14  1  0
 14 15  2  0
 15 16  1  0
 16 17  2  0
 17 18  1  0
 17 24  1  0
 18 19  1  0
 18 28  1  0
 19 20  2  0
 19 21  1  0
 21 22  1  0
 22 23  1  0
 23 21  1  0
 24 25  2  0
 25 26  1  0
 26 15  1  0
 26 27  2  0
 27 12  1  0
M  END
> <CMPD_CHEMBLID>
CHEMBL3689705

> <STANDARD_TYPE>
Ki

> <RELATION>
=

> <STANDARD_VALUE>
19.6

> <STANDARD_UNITS>
nM

> <Molecular_Weight>
390.78617

$$$$

  SciTegic11272012012D

 46 51  0  0  0  0            999 V2000
    1.2861   -0.7425    0.0000 C   0  0
    0.7144   -0.4125    0.0000 N   0  0
    0.7144    0.4125    0.0000 C   0  0
    1.2861    0.7425    0.0000 O   0  0
    0.0000    0.8250    0.0000 C   0  0
   -0.7144    0.4125    0.0000 C   0  0
   -0.7144   -0.4125    0.0000 C   0  0
   -1.4290   -0.8250    0.0000 C   0  0
   -1.4290   -1.6500    0.0000 N   0  0
   -0.7144   -2.0625    0.0000 C   0  0
   -0.7127   -2.8879    0.0000 N   0  0
    0.0027   -3.2997    0.0000 C   0  0
    0.0044   -4.1251    0.0000 C   0  0
    0.7188   -4.5377    0.0000 C   0  0
    0.7189   -5.3627    0.0000 C   0  0
    0.0045   -5.7752    0.0000 C   0  0
   -0.7100   -5.3627    0.0000 C   0  0
   -0.7100   -4.5377    0.0000 C   0  0
   -1.4258   -5.7739    0.0000 C   0  0
   -1.4269   -6.4339    0.0000 O   0  0
   -2.1400   -5.3602    0.0000 C   0  0
   -2.8558   -5.7715    0.0000 C   0  0
   -3.5700   -5.3578    0.0000 C   0  0
   -4.2857   -5.7691    0.0000 C   0  0
   -5.0000   -5.3553    0.0000 C   0  0
   -5.0730   -4.5406    0.0000 S   0  0
   -5.8794   -4.3663    0.0000 C   0  0
   -6.2944   -5.0794    0.0000 C   0  0
   -7.0483   -5.4116    0.0000 N   0  0
   -6.9649   -6.2323    0.0000 C   0  0
   -7.4569   -6.6723    0.0000 O   0  0
   -6.1586   -6.4066    0.0000 N   0  0
   -5.7445   -5.6944    0.0000 C   0  0
    0.0000   -1.6500    0.0000 N   0  0
    0.0000   -0.8250    0.0000 C   0  0
    0.0000    1.6504    0.0000 C   0  0
    0.7138    2.0641    0.0000 C   0  0
    1.2859    1.7350    0.0000 Cl  0  0
    0.7125    2.8891    0.0000 C   0  0
   -0.0026    3.3005    0.0000 C   0  0
   -0.7164    2.8868    0.0000 C   0  0
   -0.7151    2.0618    0.0000 C   0  0
   -1.2862    1.7310    0.0000 Cl  0  0
   -5.9365   -6.9098    0.0000 H   0  0
   -7.5236   -5.1348    0.0000 H   0  0
   -1.1886   -3.1638    0.0000 H   0  0
  1  2  1  0
  2  3  1  0
  3  4  2  0
  3  5  1  0
  5  6  2  0
  5 36  1  0
  6  7  1  0
  7  8  2  0
  8  9  1  0
  9 10  2  0
 10 11  1  0
 10 34  1  0
 11 12  1  0
 11 46  1  0
 12 13  1  0
 13 14  2  0
 14 15  1  0
 15 16  2  0
 16 17  1  0
 17 18  2  0
 17 19  1  0
 18 13  1  0
 19 20  2  0
 19 21  1  0
 21 22  1  0
 22 23  1  0
 23 24  1  0
 24 25  1  0
 25 26  1  0
 26 27  1  0
 27 28  1  0
 28 29  1  0
 29 30  1  0
 29 45  1  0
 30 31  2  0
 30 32  1  0
 32 33  1  0
 32 44  1  0
 33 25  1  0
 33 28  1  0
 34 35  2  0
 35  2  1  0
 35  7  1  0
 36 37  2  0
 37 38  1  0
 37 39  1  0
 39 40  2  0
 40 41  1  0
 41 42  2  0
 42 36  1  0
 42 43  1  0
M  END
> <CMPD_CHEMBLID>
CHEMBL1223483

> <STANDARD_TYPE>
Ki

> <RELATION>
=

> <STANDARD_VALUE>
20

> <STANDARD_UNITS>
nM

> <Molecular_Weight>
637.5793

$$$$

  SciTegic11272012012D

 25 28  0  0  0  0            999 V2000
    1.4193   -3.9622    0.0000 F   0  0
    1.4216   -3.3022    0.0000 C   0  0
    2.1375   -2.8922    0.0000 C   0  0
    2.1403   -2.0672    0.0000 C   0  0
    1.4273   -1.6521    0.0000 C   0  0
    1.4285   -0.8267    0.0000 O   0  0
    0.7144   -0.4125    0.0000 C   0  0
    0.7144    0.4125    0.0000 C   0  0
    0.0000    0.8250    0.0000 C   0  0
   -0.7144    0.4125    0.0000 C   0  0
   -1.4290    0.8250    0.0000 C   0  0
   -2.1434    0.4125    0.0000 C   0  0
   -2.8591    0.8237    0.0000 N   0  0
   -3.5734    0.4100    0.0000 C   0  0
   -3.5722   -0.2500    0.0000 O   0  0
   -4.2891    0.8213    0.0000 C   0  0
   -5.0706    0.7961    0.0000 C   0  0
   -4.6581    1.5106    0.0000 C   0  0
   -2.1434   -0.4125    0.0000 N   0  0
   -1.4290   -0.8250    0.0000 C   0  0
   -0.7144   -0.4125    0.0000 C   0  0
    0.0000   -0.8250    0.0000 C   0  0
    0.7114   -2.0622    0.0000 C   0  0
    0.7086   -2.8872    0.0000 C   0  0
   -2.8601    1.3737    0.0000 H   0  0
  1  2  1  0
  2  3  2  0
  3  4  1  0
  4  5  2  0
  5  6  1  0
  5 23  1  0
  6  7  1  0
  7  8  2  0
  8  9  1  0
  9 10  2  0
 10 11  1  0
 11 12  2  0
 12 13  1  0
 12 19  1  0
 13 14  1  0
 13 25  1  0
 14 15  2  0
 14 16  1  0
 16 17  1  0
 17 18  1  0
 18 16  1  0
 19 20  2  0
 20 21  1  0
 21 10  1  0
 21 22  2  0
 22  7  1  0
 23 24  2  0
 24  2  1  0
M  END
> <CMPD_CHEMBLID>
CHEMBL3685108

> <STANDARD_TYPE>
Ki

> <RELATION>
=

> <STANDARD_VALUE>
20

> <STANDARD_UNITS>
nM

> <Molecular_Weight>
322.333

$$$$

  SciTegic11272012012D

 32 35  0  0  0  0            999 V2000
    1.2861   -0.7425    0.0000 C   0  0
    0.7144   -0.4125    0.0000 C   0  0
    0.7144    0.4125    0.0000 C   0  0
    0.0000    0.8250    0.0000 C   0  0
   -0.7144    0.4125    0.0000 C   0  0
   -0.7144   -0.4125    0.0000 C   0  0
    0.0000   -0.8250    0.0000 C   0  0
   -1.4302    0.8237    0.0000 C   0  0
   -1.4313    1.4837    0.0000 O   0  0
   -2.1444    0.4100    0.0000 N   0  0
   -2.8602    0.8213    0.0000 C   0  0
   -3.5747    0.4088    0.0000 C   0  0
   -4.2892    0.8213    0.0000 C   0  0
   -4.2892    1.6463    0.0000 C   0  0
   -4.8608    1.9763    0.0000 C   0  0
   -3.5747    2.0588    0.0000 C   0  0
   -3.5731    2.8842    0.0000 N   0  0
   -2.8576    3.2960    0.0000 C   0  0
   -2.8547    4.1210    0.0000 N   0  0
   -2.1388    4.5310    0.0000 C   0  0
   -1.4258    4.1161    0.0000 C   0  0
   -1.4286    3.2911    0.0000 C   0  0
   -2.1445    2.8810    0.0000 N   0  0
   -0.7152    2.8759    0.0000 C   0  0
    0.0014    3.2848    0.0000 C   0  0
    0.7138    2.8687    0.0000 C   0  0
    0.7096    2.0437    0.0000 C   0  0
   -0.0069    1.6348    0.0000 N   0  0
   -0.7193    2.0509    0.0000 C   0  0
   -2.8602    1.6463    0.0000 C   0  0
   -4.0489    3.1600    0.0000 H   0  0
   -2.1435   -0.1400    0.0000 H   0  0
  1  2  1  0
  2  3  2  0
  3  4  1  0
  4  5  2  0
  5  6  1  0
  5  8  1  0
  6  7  2  0
  7  2  1  0
  8  9  2  0
  8 10  1  0
 10 11  1  0
 10 32  1  0
 11 12  2  0
 12 13  1  0
 13 14  2  0
 14 15  1  0
 14 16  1  0
 16 17  1  0
 16 30  2  0
 17 18  1  0
 17 31  1  0
 18 19  2  0
 19 20  1  0
 20 21  2  0
 21 22  1  0
 22 23  2  0
 22 24  1  0
 23 18  1  0
 24 25  2  0
 25 26  1  0
 26 27  2  0
 27 28  1  0
 28 29  2  0
 29 24  1  0
 30 11  1  0
M  END
> <CMPD_CHEMBLID>
CHEMBL20867

> <STANDARD_TYPE>
IC50

> <RELATION>
=

> <STANDARD_VALUE>
20

> <STANDARD_UNITS>
nM

> <Molecular_Weight>
395.45644

$$$$

  SciTegic11272012012D

 37 40  0  0  0  0            999 V2000
    1.2861   -0.7425    0.0000 C   0  0
    0.7144   -0.4125    0.0000 N   0  0
    0.7144    0.4125    0.0000 C   0  0
    1.2861    0.7425    0.0000 O   0  0
    0.0000    0.8250    0.0000 C   0  0
   -0.7144    0.4125    0.0000 C   0  0
   -0.7144   -0.4125    0.0000 C   0  0
   -1.4290   -0.8250    0.0000 C   0  0
   -1.4290   -1.6500    0.0000 N   0  0
   -0.7144   -2.0625    0.0000 C   0  0
   -0.7127   -2.8879    0.0000 N   0  0
    0.0027   -3.2997    0.0000 C   0  0
    0.0044   -4.1251    0.0000 C   0  0
    0.7188   -4.5377    0.0000 C   0  0
    0.7189   -5.3627    0.0000 C   0  0
    0.0045   -5.7752    0.0000 C   0  0
   -0.7100   -5.3627    0.0000 C   0  0
   -1.4258   -5.7740    0.0000 N   0  0
   -2.1400   -5.3602    0.0000 C   0  0
   -2.1389   -4.7002    0.0000 O   0  0
   -2.8558   -5.7715    0.0000 C   0  0
   -3.5700   -5.3578    0.0000 N   0  0
   -0.7100   -4.5377    0.0000 C   0  0
    0.0000   -1.6500    0.0000 N   0  0
    0.0000   -0.8250    0.0000 C   0  0
    0.0000    1.6504    0.0000 C   0  0
    0.7138    2.0641    0.0000 C   0  0
    1.2859    1.7350    0.0000 Cl  0  0
    0.7125    2.8891    0.0000 C   0  0
   -0.0026    3.3005    0.0000 C   0  0
   -0.7164    2.8868    0.0000 C   0  0
   -0.7151    2.0618    0.0000 C   0  0
   -1.2862    1.7310    0.0000 Cl  0  0
   -4.0469   -5.6318    0.0000 H   0  0
   -3.5691   -4.8078    0.0000 H   0  0
   -1.4267   -6.3240    0.0000 H   0  0
   -1.1886   -3.1638    0.0000 H   0  0
  1  2  1  0
  2  3  1  0
  3  4  2  0
  3  5  1  0
  5  6  2  0
  5 26  1  0
  6  7  1  0
  7  8  2  0
  8  9  1  0
  9 10  2  0
 10 11  1  0
 10 24  1  0
 11 12  1  0
 11 37  1  0
 12 13  1  0
 13 14  2  0
 14 15  1  0
 15 16  2  0
 16 17  1  0
 17 18  1  0
 17 23  2  0
 18 19  1  0
 18 36  1  0
 19 20  2  0
 19 21  1  0
 21 22  1  0
 22 34  1  0
 22 35  1  0
 23 13  1  0
 24 25  2  0
 25  2  1  0
 25  7  1  0
 26 27  2  0
 27 28  1  0
 27 29  1  0
 29 30  2  0
 30 31  1  0
 31 32  2  0
 32 26  1  0
 32 33  1  0
M  END
> <CMPD_CHEMBLID>
CHEMBL1223482

> <STANDARD_TYPE>
Ki

> <RELATION>
=

> <STANDARD_VALUE>
20

> <STANDARD_UNITS>
nM

> <Molecular_Weight>
483.3499

$$$$

  SciTegic11272012012D

 28 31  0  0  0  0            999 V2000
    2.1456    0.2461    0.0000 C   0  0
    2.1445   -0.4139    0.0000 C   0  0
    2.8583   -0.8275    0.0000 C   0  0
    2.8570   -1.6525    0.0000 C   0  0
    2.1419   -2.0639    0.0000 C   0  0
    1.4281   -1.6502    0.0000 C   0  0
    1.4293   -0.8252    0.0000 C   0  0
    0.7145   -0.4125    0.0000 C   0  0
    0.7145    0.4125    0.0000 C   0  0
    0.0000    0.8250    0.0000 C   0  0
   -0.7145    0.4125    0.0000 C   0  0
   -1.4290    0.8250    0.0000 C   0  0
   -2.1434    0.4125    0.0000 C   0  0
   -2.8592    0.8237    0.0000 N   0  0
   -3.5735    0.4100    0.0000 C   0  0
   -3.5723   -0.2500    0.0000 O   0  0
   -4.2892    0.8213    0.0000 C   0  0
   -5.0706    0.7961    0.0000 C   0  0
   -4.6581    1.5106    0.0000 C   0  0
   -2.1434   -0.4125    0.0000 N   0  0
   -1.4290   -0.8250    0.0000 C   0  0
   -0.7145   -0.4125    0.0000 C   0  0
    0.0000   -0.8250    0.0000 C   0  0
    2.1406   -2.8894    0.0000 C   0  0
    2.7114   -3.2206    0.0000 F   0  0
    1.5684   -3.2183    0.0000 F   0  0
    2.1393   -3.5494    0.0000 F   0  0
   -2.8601    1.3738    0.0000 H   0  0
  1  2  1  0
  2  3  2  0
  3  4  1  0
  4  5  2  0
  5  6  1  0
  5 24  1  0
  6  7  2  0
  7  2  1  0
  7  8  1  0
  8  9  2  0
  9 10  1  0
 10 11  2  0
 11 12  1  0
 12 13  2  0
 13 14  1  0
 13 20  1  0
 14 15  1  0
 14 28  1  0
 15 16  2  0
 15 17  1  0
 17 18  1  0
 18 19  1  0
 19 17  1  0
 20 21  2  0
 21 22  1  0
 22 11  1  0
 22 23  2  0
 23  8  1  0
 24 25  1  0
 24 26  1  0
 24 27  1  0
M  END
> <CMPD_CHEMBLID>
CHEMBL3685076

> <STANDARD_TYPE>
Ki

> <RELATION>
=

> <STANDARD_VALUE>
20

> <STANDARD_UNITS>
nM

> <Molecular_Weight>
370.36769

$$$$

  SciTegic11272012012D

 37 41  0  0  0  0            999 V2000
    0.2263   -4.5662    0.0000 C   0  0
   -0.4193   -4.4289    0.0000 C   0  0
   -0.9714   -5.0419    0.0000 C   0  0
   -1.7784   -4.8702    0.0000 C   0  0
   -2.0332   -4.0856    0.0000 C   0  0
   -1.4810   -3.4726    0.0000 C   0  0
   -0.6741   -3.6442    0.0000 C   0  0
   -0.1229   -3.0297    0.0000 C   0  0
   -0.3789   -2.2450    0.0000 C   0  0
    0.1713   -1.6316    0.0000 N   0  0
    0.9918   -1.7178    0.0000 C   0  0
    1.3273   -0.9641    0.0000 N   0  0
    0.7144   -0.4125    0.0000 C   0  0
    0.7144    0.4125    0.0000 C   0  0
    1.4285    0.8267    0.0000 N   0  0
    1.4273    1.6521    0.0000 C   0  0
    1.8374    2.3178    0.0000 C   0  0
    1.0124    2.3149    0.0000 C   0  0
    0.0000    0.8250    0.0000 N   0  0
   -0.7144    0.4125    0.0000 C   0  0
   -0.7144   -0.4125    0.0000 N   0  0
    0.0000   -0.8250    0.0000 C   0  0
   -2.8402   -3.9122    0.0000 C   0  0
   -3.2828   -4.4018    0.0000 O   0  0
   -3.0941   -3.1267    0.0000 N   0  0
   -3.9011   -2.9533    0.0000 C   0  0
   -4.1560   -2.1686    0.0000 C   0  0
   -4.9629   -1.9969    0.0000 C   0  0
   -5.5150   -2.6100    0.0000 C   0  0
   -5.2603   -3.3946    0.0000 C   0  0
   -4.4533   -3.5663    0.0000 N   0  0
   -5.2179   -1.2119    0.0000 C   0  0
   -4.7764   -0.7212    0.0000 F   0  0
   -5.8634   -1.0747    0.0000 F   0  0
   -5.4220   -0.5842    0.0000 F   0  0
   -2.7252   -2.7186    0.0000 H   0  0
    1.9053    0.5525    0.0000 H   0  0
  1  2  1  0
  2  3  2  0
  3  4  1  0
  4  5  2  0
  5  6  1  0
  5 23  1  0
  6  7  2  0
  7  2  1  0
  7  8  1  0
  8  9  2  0
  9 10  1  0
 10 11  1  0
 11 12  2  0
 12 13  1  0
 13 14  2  0
 14 15  1  0
 14 19  1  0
 15 16  1  0
 15 37  1  0
 16 17  1  0
 17 18  1  0
 18 16  1  0
 19 20  2  0
 20 21  1  0
 21 22  2  0
 22 10  1  0
 22 13  1  0
 23 24  2  0
 23 25  1  0
 25 26  1  0
 25 36  1  0
 26 27  2  0
 27 28  1  0
 28 29  2  0
 28 32  1  0
 29 30  1  0
 30 31  2  0
 31 26  1  0
 32 33  1  0
 32 34  1  0
 32 35  1  0
M  END
> <CMPD_CHEMBLID>
CHEMBL556874

> <STANDARD_TYPE>
IC50

> <RELATION>
=

> <STANDARD_VALUE>
20

> <STANDARD_UNITS>
nM

> <Molecular_Weight>
479.45711

$$$$

  SciTegic11272012012D

 25 28  0  0  0  0            999 V2000
    2.1409   -2.7239    0.0000 C   0  0
    2.1419   -2.0639    0.0000 C   0  0
    1.4281   -1.6503    0.0000 C   0  0
    1.4293   -0.8252    0.0000 C   0  0
    2.1446   -0.4139    0.0000 C   0  0
    2.1456    0.2461    0.0000 C   0  0
    2.8584   -0.8275    0.0000 C   0  0
    2.8570   -1.6525    0.0000 N   0  0
    0.7145   -0.4125    0.0000 C   0  0
    0.7145    0.4125    0.0000 C   0  0
    0.0000    0.8250    0.0000 C   0  0
   -0.7145    0.4125    0.0000 C   0  0
   -1.4290    0.8250    0.0000 C   0  0
   -2.1435    0.4125    0.0000 C   0  0
   -2.8592    0.8238    0.0000 N   0  0
   -3.5735    0.4100    0.0000 C   0  0
   -3.5723   -0.2500    0.0000 O   0  0
   -4.2892    0.8213    0.0000 C   0  0
   -5.0707    0.7961    0.0000 C   0  0
   -4.6582    1.5106    0.0000 C   0  0
   -2.1435   -0.4125    0.0000 N   0  0
   -1.4290   -0.8250    0.0000 C   0  0
   -0.7145   -0.4125    0.0000 C   0  0
    0.0000   -0.8250    0.0000 C   0  0
   -2.8602    1.3738    0.0000 H   0  0
  1  2  1  0
  2  3  2  0
  3  4  1  0
  4  5  2  0
  4  9  1  0
  5  6  1  0
  5  7  1  0
  7  8  2  0
  8  2  1  0
  9 10  2  0
 10 11  1  0
 11 12  2  0
 12 13  1  0
 13 14  2  0
 14 15  1  0
 14 21  1  0
 15 16  1  0
 15 25  1  0
 16 17  2  0
 16 18  1  0
 18 19  1  0
 19 20  1  0
 20 18  1  0
 21 22  2  0
 22 23  1  0
 23 12  1  0
 23 24  2  0
 24  9  1  0
M  END
> <CMPD_CHEMBLID>
CHEMBL3689581

> <STANDARD_TYPE>
Ki

> <RELATION>
=

> <STANDARD_VALUE>
20

> <STANDARD_UNITS>
nM

> <Molecular_Weight>
317.38436

$$$$

  SciTegic11272012012D

 41 47  0  0  0  0            999 V2000
    3.4274   -1.9912    0.0000 C   0  0
    2.8575   -1.6584    0.0000 O   0  0
    2.1403   -2.0672    0.0000 C   0  0
    2.1375   -2.8922    0.0000 C   0  0
    1.4216   -3.3022    0.0000 C   0  0
    0.7086   -2.8872    0.0000 C   0  0
    0.7114   -2.0622    0.0000 C   0  0
    1.4273   -1.6521    0.0000 C   0  0
    1.4285   -0.8267    0.0000 O   0  0
    0.7144   -0.4125    0.0000 C   0  0
    0.7144    0.4125    0.0000 C   0  0
    0.0000    0.8250    0.0000 C   0  0
   -0.7144    0.4125    0.0000 C   0  0
   -1.4986    0.6674    0.0000 N   0  0
   -1.9836    0.0000    0.0000 N   0  0
   -1.4986   -0.6674    0.0000 C   0  0
   -1.7536   -1.4525    0.0000 C   0  0
   -1.2128   -2.0668    0.0000 N   0  0
   -1.6438   -2.7698    0.0000 C   0  0
   -1.4096   -3.5609    0.0000 C   0  0
   -1.9776   -4.1592    0.0000 C   0  0
   -2.7798   -3.9665    0.0000 C   0  0
   -3.0140   -3.1755    0.0000 C   0  0
   -2.4460   -2.5771    0.0000 C   0  0
   -2.5108   -1.7551    0.0000 N   0  0
   -1.7432   -4.9507    0.0000 N   0  0
   -0.9413   -5.1447    0.0000 C   0  0
   -0.7084   -5.9361    0.0000 C   0  0
   -1.2773   -6.5336    0.0000 C   0  0
   -2.0792   -6.3396    0.0000 C   0  0
   -2.3121   -5.5482    0.0000 C   0  0
   -1.0442   -7.3254    0.0000 N   0  0
   -0.2427   -7.5207    0.0000 C   0  0
   -0.0109   -8.3125    0.0000 C   0  0
   -0.5808   -8.9091    0.0000 C   0  0
   -1.3824   -8.7138    0.0000 C   0  0
   -1.6141   -7.9220    0.0000 C   0  0
   -0.7144   -0.4125    0.0000 C   0  0
    0.0000   -0.8250    0.0000 C   0  0
   -2.9779   -1.4648    0.0000 H   0  0
   -1.6685    1.1905    0.0000 H   0  0
  1  2  1  0
  2  3  1  0
  3  4  2  0
  4  5  1  0
  5  6  2  0
  6  7  1  0
  7  8  2  0
  8  3  1  0
  8  9  1  0
  9 10  1  0
 10 11  2  0
 11 12  1  0
 12 13  2  0
 13 14  1  0
 14 15  1  0
 14 41  1  0
 15 16  2  0
 16 17  1  0
 16 38  1  0
 17 18  2  0
 18 19  1  0
 19 20  2  0
 20 21  1  0
 21 22  2  0
 21 26  1  0
 22 23  1  0
 23 24  2  0
 24 19  1  0
 24 25  1  0
 25 17  1  0
 25 40  1  0
 26 27  1  0
 27 28  1  0
 28 29  1  0
 29 30  1  0
 29 32  1  0
 30 31  1  0
 31 26  1  0
 32 33  1  0
 33 34  1  0
 34 35  1  0
 35 36  1  0
 36 37  1  0
 37 32  1  0
 38 13  1  0
 38 39  2  0
 39 10  1  0
M  END
> <CMPD_CHEMBLID>
CHEMBL211508

> <STANDARD_TYPE>
IC50

> <RELATION>
=

> <STANDARD_VALUE>
20

> <STANDARD_UNITS>
nM

> <Molecular_Weight>
522.64066

$$$$

  SciTegic11272012012D

 29 32  0  0  0  0            999 V2000
   -2.2201   -5.3606    0.0000 F   0  0
   -1.7784   -4.8702    0.0000 C   0  0
   -0.9714   -5.0419    0.0000 C   0  0
   -0.4193   -4.4289    0.0000 C   0  0
   -0.6741   -3.6442    0.0000 C   0  0
   -1.4810   -3.4726    0.0000 C   0  0
   -2.0332   -4.0856    0.0000 C   0  0
   -0.1229   -3.0297    0.0000 C   0  0
    0.5229   -3.1659    0.0000 Cl  0  0
   -0.3789   -2.2450    0.0000 C   0  0
    0.1713   -1.6316    0.0000 N   0  0
    0.9918   -1.7178    0.0000 N   0  0
    1.3273   -0.9641    0.0000 C   0  0
    0.7144   -0.4125    0.0000 C   0  0
    0.7144    0.4125    0.0000 C   0  0
    1.4285    0.8267    0.0000 N   0  0
    1.4273    1.6521    0.0000 C   0  0
    2.1413    2.0663    0.0000 C   0  0
    2.8559    1.6539    0.0000 C   0  0
    3.5703    2.0664    0.0000 C   0  0
    3.5703    2.8914    0.0000 C   0  0
    2.8558    3.3039    0.0000 C   0  0
    2.1413    2.8913    0.0000 C   0  0
    1.5698    3.2213    0.0000 F   0  0
    0.0000    0.8250    0.0000 N   0  0
   -0.7144    0.4125    0.0000 C   0  0
   -0.7144   -0.4125    0.0000 N   0  0
    0.0000   -0.8250    0.0000 C   0  0
    1.9053    0.5525    0.0000 H   0  0
  1  2  1  0
  2  3  2  0
  3  4  1  0
  4  5  2  0
  5  6  1  0
  5  8  1  0
  6  7  2  0
  7  2  1  0
  8  9  1  0
  8 10  1  0
 10 11  1  0
 11 12  1  0
 12 13  2  0
 13 14  1  0
 14 15  2  0
 15 16  1  0
 15 25  1  0
 16 17  1  0
 16 29  1  0
 17 18  1  0
 18 19  2  0
 19 20  1  0
 20 21  2  0
 21 22  1  0
 22 23  2  0
 23 18  1  0
 23 24  1  0
 25 26  2  0
 26 27  1  0
 27 28  2  0
 28 11  1  0
 28 14  1  0
M  END
> <CMPD_CHEMBLID>
CHEMBL270492

> <STANDARD_TYPE>
Ki

> <RELATION>
=

> <STANDARD_VALUE>
20

> <STANDARD_UNITS>
nM

> <Molecular_Weight>
399.82435

$$$$

  SciTegic11272012012D

 26 29  0  0  0  0            999 V2000
    1.4302   -0.8237    0.0000 O   0  0
    0.7144   -0.4125    0.0000 C   0  0
    0.7144    0.4125    0.0000 C   0  0
    0.0000    0.8250    0.0000 N   0  0
   -0.7144    0.4125    0.0000 C   0  0
   -0.7144   -0.4125    0.0000 C   0  0
   -1.4290   -0.8250    0.0000 C   0  0
   -1.4290   -1.6500    0.0000 C   0  0
   -2.1430   -2.0642    0.0000 N   0  0
   -2.1418   -2.8896    0.0000 C   0  0
   -1.5696   -3.2187    0.0000 O   0  0
   -2.8558   -3.3038    0.0000 C   0  0
   -3.2248   -3.9932    0.0000 C   0  0
   -3.6373   -3.2787    0.0000 C   0  0
   -0.7144   -2.0625    0.0000 N   0  0
    0.0000   -1.6500    0.0000 C   0  0
    0.0000   -0.8250    0.0000 C   0  0
    1.4293    0.8252    0.0000 C   0  0
    1.4280    1.6503    0.0000 C   0  0
    2.1419    2.0639    0.0000 C   0  0
    2.8570    1.6525    0.0000 C   0  0
    2.8583    0.8275    0.0000 C   0  0
    2.1444    0.4139    0.0000 C   0  0
    2.1455   -0.2461    0.0000 Cl  0  0
   -2.6198   -1.7900    0.0000 H   0  0
    1.9061   -0.5481    0.0000 H   0  0
  1  2  1  0
  1 26  1  0
  2  3  2  0
  3  4  1  0
  3 18  1  0
  4  5  2  0
  5  6  1  0
  6  7  2  0
  7  8  1  0
  8  9  1  0
  8 15  2  0
  9 10  1  0
  9 25  1  0
 10 11  2  0
 10 12  1  0
 12 13  1  0
 13 14  1  0
 14 12  1  0
 15 16  1  0
 16 17  2  0
 17  2  1  0
 17  6  1  0
 18 19  2  0
 19 20  1  0
 20 21  2  0
 21 22  1  0
 22 23  2  0
 23 18  1  0
 23 24  1  0
M  END
> <CMPD_CHEMBLID>
CHEMBL3689638

> <STANDARD_TYPE>
Ki

> <RELATION>
=

> <STANDARD_VALUE>
20

> <STANDARD_UNITS>
nM

> <Molecular_Weight>
339.77566

$$$$

  SciTegic11272012012D

 29 32  0  0  0  0            999 V2000
    1.2861   -0.7425    0.0000 C   0  0
    0.7144   -0.4125    0.0000 N   0  0
    0.7144    0.4125    0.0000 C   0  0
    1.2861    0.7425    0.0000 O   0  0
    0.0000    0.8250    0.0000 C   0  0
   -0.7144    0.4125    0.0000 C   0  0
   -0.7144   -0.4125    0.0000 C   0  0
   -1.4290   -0.8250    0.0000 C   0  0
   -1.4290   -1.6500    0.0000 N   0  0
   -0.7144   -2.0625    0.0000 C   0  0
   -0.7127   -2.8879    0.0000 N   0  0
    0.0027   -3.2997    0.0000 C   0  0
    0.0056   -4.1247    0.0000 C   0  0
    0.7215   -4.5347    0.0000 C   0  0
    1.4345   -4.1197    0.0000 C   0  0
    2.0072   -4.4477    0.0000 F   0  0
    1.4317   -3.2947    0.0000 C   0  0
    0.7158   -2.8847    0.0000 C   0  0
    0.0000   -1.6500    0.0000 N   0  0
    0.0000   -0.8250    0.0000 C   0  0
    0.0000    1.6504    0.0000 C   0  0
    0.7138    2.0641    0.0000 C   0  0
    1.2859    1.7350    0.0000 Cl  0  0
    0.7125    2.8891    0.0000 C   0  0
   -0.0026    3.3005    0.0000 C   0  0
   -0.7164    2.8868    0.0000 C   0  0
   -0.7151    2.0618    0.0000 C   0  0
   -1.2862    1.7310    0.0000 Cl  0  0
   -1.1886   -3.1638    0.0000 H   0  0
  1  2  1  0
  2  3  1  0
  3  4  2  0
  3  5  1  0
  5  6  2  0
  5 21  1  0
  6  7  1  0
  7  8  2  0
  8  9  1  0
  9 10  2  0
 10 11  1  0
 10 19  1  0
 11 12  1  0
 11 29  1  0
 12 13  2  0
 13 14  1  0
 14 15  2  0
 15 16  1  0
 15 17  1  0
 17 18  2  0
 18 12  1  0
 19 20  2  0
 20  2  1  0
 20  7  1  0
 21 22  2  0
 22 23  1  0
 22 24  1  0
 24 25  2  0
 25 26  1  0
 26 27  2  0
 27 21  1  0
 27 28  1  0
M  END
> <CMPD_CHEMBLID>
CHEMBL574059

> <STANDARD_TYPE>
IC50

> <RELATION>
=

> <STANDARD_VALUE>
21

> <STANDARD_UNITS>
nM

> <Molecular_Weight>
415.24782

$$$$

  SciTegic11272012012D

 26 29  0  0  0  0            999 V2000
    1.4302   -0.8238    0.0000 N   0  0
    0.7145   -0.4125    0.0000 C   0  0
    0.7145    0.4125    0.0000 N   0  0
    0.0000    0.8250    0.0000 C   0  0
   -0.7145    0.4125    0.0000 N   0  0
   -0.7145   -0.4125    0.0000 C   0  0
    0.0000   -0.8250    0.0000 C   0  0
   -0.1713   -1.6316    0.0000 C   0  0
   -0.9918   -1.7178    0.0000 N   0  0
   -1.3273   -0.9642    0.0000 N   0  0
   -2.1348   -0.7925    0.0000 C   0  0
   -2.7754   -1.2969    0.0000 C   0  0
   -3.4553   -0.8297    0.0000 C   0  0
   -3.2211   -0.0386    0.0000 O   0  0
   -2.3964   -0.0169    0.0000 C   0  0
    0.3811   -2.2450    0.0000 C   0  0
    1.1959   -2.1345    0.0000 C   0  0
    1.7002   -2.7874    0.0000 C   0  0
    1.3870   -3.5506    0.0000 C   0  0
    1.7905   -4.0729    0.0000 F   0  0
    0.5694   -3.6610    0.0000 C   0  0
    0.2544   -4.4240    0.0000 O   0  0
    0.0651   -3.0081    0.0000 C   0  0
   -0.2907   -4.4968    0.0000 H   0  0
    1.9062   -0.5481    0.0000 H   0  0
    1.4312   -1.3738    0.0000 H   0  0
  1  2  1  0
  1 25  1  0
  1 26  1  0
  2  3  2  0
  3  4  1  0
  4  5  2  0
  5  6  1  0
  6  7  2  0
  7  2  1  0
  7  8  1  0
  8  9  2  0
  8 16  1  0
  9 10  1  0
 10  6  1  0
 10 11  1  0
 11 12  1  0
 12 13  1  0
 13 14  1  0
 14 15  1  0
 15 11  1  0
 16 17  2  0
 17 18  1  0
 18 19  2  0
 19 20  1  0
 19 21  1  0
 21 22  1  0
 21 23  2  0
 22 24  1  0
 23 16  1  0
M  END
> <CMPD_CHEMBLID>
CHEMBL1242749

> <STANDARD_TYPE>
IC50

> <RELATION>
=

> <STANDARD_VALUE>
21

> <STANDARD_UNITS>
nM

> <Molecular_Weight>
315.30236

$$$$

  SciTegic11272012012D

 29 32  0  0  0  0            999 V2000
    0.5229   -3.1659    0.0000 Cl  0  0
   -0.1229   -3.0297    0.0000 C   0  0
   -0.3789   -2.2450    0.0000 C   0  0
    0.1713   -1.6316    0.0000 N   0  0
    0.9918   -1.7178    0.0000 N   0  0
    1.3273   -0.9641    0.0000 C   0  0
    0.7144   -0.4125    0.0000 C   0  0
    0.7144    0.4125    0.0000 C   0  0
    1.4285    0.8267    0.0000 N   0  0
    1.4273    1.6521    0.0000 C   0  0
    2.1413    2.0663    0.0000 C   0  0
    2.1413    2.8914    0.0000 C   0  0
    2.8558    3.3039    0.0000 C   0  0
    3.5703    2.8914    0.0000 C   0  0
    3.5703    2.0664    0.0000 C   0  0
    4.1419    1.7365    0.0000 Cl  0  0
    2.8559    1.6539    0.0000 C   0  0
    0.0000    0.8250    0.0000 N   0  0
   -0.7144    0.4125    0.0000 C   0  0
   -0.7144   -0.4125    0.0000 N   0  0
    0.0000   -0.8250    0.0000 C   0  0
   -0.6741   -3.6442    0.0000 C   0  0
   -0.4193   -4.4289    0.0000 C   0  0
   -0.9714   -5.0419    0.0000 C   0  0
   -1.7784   -4.8702    0.0000 C   0  0
   -2.2201   -5.3606    0.0000 Br  0  0
   -2.0332   -4.0856    0.0000 C   0  0
   -1.4810   -3.4726    0.0000 C   0  0
    1.9053    0.5525    0.0000 H   0  0
  1  2  1  0
  2  3  1  0
  2 22  1  0
  3  4  1  0
  4  5  1  0
  5  6  2  0
  6  7  1  0
  7  8  2  0
  8  9  1  0
  8 18  1  0
  9 10  1  0
  9 29  1  0
 10 11  1  0
 11 12  2  0
 12 13  1  0
 13 14  2  0
 14 15  1  0
 15 16  1  0
 15 17  2  0
 17 11  1  0
 18 19  2  0
 19 20  1  0
 20 21  2  0
 21  4  1  0
 21  7  1  0
 22 23  2  0
 23 24  1  0
 24 25  2  0
 25 26  1  0
 25 27  1  0
 27 28  2  0
 28 22  1  0
M  END
> <CMPD_CHEMBLID>
CHEMBL2397804

> <STANDARD_TYPE>
Ki

> <RELATION>
=

> <STANDARD_VALUE>
21

> <STANDARD_UNITS>
nM

> <Molecular_Weight>
477.18454

$$$$

  SciTegic11272012012D

 28 31  0  0  0  0            999 V2000
    2.1455    0.2461    0.0000 C   0  0
    2.1445   -0.4139    0.0000 C   0  0
    2.8583   -0.8275    0.0000 C   0  0
    2.8570   -1.6525    0.0000 C   0  0
    2.1419   -2.0639    0.0000 C   0  0
    2.1408   -2.7239    0.0000 F   0  0
    1.4281   -1.6502    0.0000 C   0  0
    1.4293   -0.8252    0.0000 C   0  0
    0.7144   -0.4125    0.0000 C   0  0
    0.7144    0.4125    0.0000 C   0  0
    0.0000    0.8250    0.0000 C   0  0
   -0.7144    0.4125    0.0000 C   0  0
   -1.4290    0.8250    0.0000 C   0  0
   -2.1434    0.4125    0.0000 C   0  0
   -2.8591    0.8237    0.0000 N   0  0
   -3.5734    0.4100    0.0000 C   0  0
   -3.5706   -0.4150    0.0000 C   0  0
   -4.2836   -0.8300    0.0000 C   0  0
   -4.9995   -0.4200    0.0000 C   0  0
   -5.0024    0.4050    0.0000 C   0  0
   -5.5751    0.7330    0.0000 O   0  0
   -4.2893    0.8200    0.0000 N   0  0
   -2.1434   -0.4125    0.0000 N   0  0
   -1.4290   -0.8250    0.0000 C   0  0
   -0.7144   -0.4125    0.0000 C   0  0
    0.0000   -0.8250    0.0000 C   0  0
   -4.2913    1.3700    0.0000 H   0  0
   -2.8601    1.3737    0.0000 H   0  0
  1  2  1  0
  2  3  2  0
  3  4  1  0
  4  5  2  0
  5  6  1  0
  5  7  1  0
  7  8  2  0
  8  2  1  0
  8  9  1  0
  9 10  2  0
 10 11  1  0
 11 12  2  0
 12 13  1  0
 13 14  2  0
 14 15  1  0
 14 23  1  0
 15 16  1  0
 15 28  1  0
 16 17  2  0
 17 18  1  0
 18 19  2  0
 19 20  1  0
 20 21  2  0
 20 22  1  0
 22 16  1  0
 22 27  1  0
 23 24  2  0
 24 25  1  0
 25 12  1  0
 25 26  2  0
 26  9  1  0
M  END
> <CMPD_CHEMBLID>
CHEMBL3685125

> <STANDARD_TYPE>
Ki

> <RELATION>
=

> <STANDARD_VALUE>
21

> <STANDARD_UNITS>
nM

> <Molecular_Weight>
345.36964

$$$$

  SciTegic11272012012D

 31 33  0  0  0  0            999 V2000
    3.5726   -5.2005    0.0000 C   0  0
    3.5722   -4.5405    0.0000 C   0  0
    2.8575   -4.1276    0.0000 C   0  0
    2.8570   -3.3021    0.0000 S   0  0
    3.4286   -2.9721    0.0000 O   0  0
    3.4288   -3.6320    0.0000 O   0  0
    2.1422   -2.8893    0.0000 N   0  0
    2.1419   -2.0639    0.0000 C   0  0
    2.8570   -1.6525    0.0000 C   0  0
    2.8583   -0.8275    0.0000 C   0  0
    2.1445   -0.4139    0.0000 C   0  0
    2.1455    0.2461    0.0000 F   0  0
    1.4293   -0.8252    0.0000 C   0  0
    1.4281   -1.6502    0.0000 C   0  0
    0.8560   -1.9793    0.0000 F   0  0
    0.7144   -0.4125    0.0000 C   0  0
    0.7144    0.4125    0.0000 C   0  0
    0.0000    0.8250    0.0000 C   0  0
   -0.7144    0.4125    0.0000 C   0  0
   -1.4290    0.8250    0.0000 C   0  0
   -2.1434    0.4125    0.0000 C   0  0
   -2.8591    0.8237    0.0000 N   0  0
   -3.5734    0.4100    0.0000 C   0  0
   -4.1457    0.7388    0.0000 O   0  0
   -3.5722   -0.2500    0.0000 C   0  0
   -2.1434   -0.4125    0.0000 N   0  0
   -1.4290   -0.8250    0.0000 C   0  0
   -0.7144   -0.4125    0.0000 C   0  0
    0.0000   -0.8250    0.0000 C   0  0
   -2.8601    1.3737    0.0000 H   0  0
    1.6660   -3.1644    0.0000 H   0  0
  1  2  1  0
  2  3  1  0
  3  4  1  0
  4  5  2  0
  4  6  2  0
  4  7  1  0
  7  8  1  0
  7 31  1  0
  8  9  2  0
  9 10  1  0
 10 11  2  0
 11 12  1  0
 11 13  1  0
 13 14  2  0
 13 16  1  0
 14  8  1  0
 14 15  1  0
 16 17  2  0
 17 18  1  0
 18 19  2  0
 19 20  1  0
 20 21  2  0
 21 22  1  0
 21 26  1  0
 22 23  1  0
 22 30  1  0
 23 24  2  0
 23 25  1  0
 26 27  2  0
 27 28  1  0
 28 19  1  0
 28 29  2  0
 29 16  1  0
M  END
> <CMPD_CHEMBLID>
CHEMBL3689712

> <STANDARD_TYPE>
Ki

> <RELATION>
=

> <STANDARD_VALUE>
21.7

> <STANDARD_UNITS>
nM

> <Molecular_Weight>
419.44497

$$$$

  SciTegic11272012012D

 31 33  0  0  0  0            999 V2000
    5.0412   -4.4259    0.0000 C   0  0
    4.7100   -3.8550    0.0000 N   0  0
    5.0390   -3.2829    0.0000 C   0  0
    3.8846   -3.8562    0.0000 C   0  0
    3.4704   -3.1422    0.0000 C   0  0
    2.6450   -3.1434    0.0000 C   0  0
    2.2307   -2.4294    0.0000 N   0  0
    1.4053   -2.4306    0.0000 C   0  0
    1.0763   -3.0027    0.0000 O   0  0
    0.9918   -1.7178    0.0000 C   0  0
    1.3273   -0.9641    0.0000 C   0  0
    0.7144   -0.4125    0.0000 C   0  0
    0.7144    0.4125    0.0000 C   0  0
    0.0000    0.8250    0.0000 C   0  0
   -0.0017    1.6504    0.0000 N   0  0
   -0.7171    2.0622    0.0000 C   0  0
   -1.2882    1.7312    0.0000 O   0  0
   -0.7188    2.8876    0.0000 C   0  0
   -0.0044    3.3002    0.0000 C   0  0
   -0.0044    4.1252    0.0000 C   0  0
   -0.7189    4.5377    0.0000 C   0  0
   -1.4334    4.1252    0.0000 C   0  0
   -1.4334    3.3002    0.0000 C   0  0
   -2.0049    2.9702    0.0000 Br  0  0
   -0.7144    0.4125    0.0000 C   0  0
   -0.7144   -0.4125    0.0000 N   0  0
    0.0000   -0.8250    0.0000 C   0  0
    0.1713   -1.6316    0.0000 N   0  0
   -0.1967   -2.0403    0.0000 H   0  0
    0.4741    1.9263    0.0000 H   0  0
    2.5049   -1.9526    0.0000 H   0  0
  1  2  1  0
  2  3  1  0
  2  4  1  0
  4  5  1  0
  5  6  1  0
  6  7  1  0
  7  8  1  0
  7 31  1  0
  8  9  2  0
  8 10  1  0
 10 11  2  0
 11 12  1  0
 12 13  2  0
 13 14  1  0
 14 15  1  0
 14 25  2  0
 15 16  1  0
 15 30  1  0
 16 17  2  0
 16 18  1  0
 18 19  2  0
 19 20  1  0
 20 21  2  0
 21 22  1  0
 22 23  2  0
 23 18  1  0
 23 24  1  0
 25 26  1  0
 26 27  2  0
 27 12  1  0
 27 28  1  0
 28 10  1  0
 28 29  1  0
M  END
> <CMPD_CHEMBLID>
CHEMBL3347647

> <STANDARD_TYPE>
IC50

> <RELATION>
=

> <STANDARD_VALUE>
21.81

> <STANDARD_UNITS>
nM

> <Molecular_Weight>
444.32498

$$$$

  SciTegic11272012012D

 41 45  0  0  0  0            999 V2000
   -9.0902   -0.3774    0.0000 C   0  0
   -8.4451   -0.5169    0.0000 C   0  0
   -8.1931   -1.3025    0.0000 C   0  0
   -7.3868   -1.4771    0.0000 N   0  0
   -7.1330   -2.2625    0.0000 C   0  0
   -6.3260   -2.4360    0.0000 C   0  0
   -5.7738   -1.8230    0.0000 C   0  0
   -4.9669   -1.9947    0.0000 C   0  0
   -4.7120   -2.7794    0.0000 C   0  0
   -3.9050   -2.9528    0.0000 N   0  0
   -3.6512   -3.7383    0.0000 C   0  0
   -4.0938   -4.2279    0.0000 O   0  0
   -2.8442   -3.9117    0.0000 C   0  0
   -2.5894   -4.6964    0.0000 C   0  0
   -1.7825   -4.8681    0.0000 C   0  0
   -1.2303   -4.2551    0.0000 C   0  0
   -0.5848   -4.3925    0.0000 C   0  0
   -1.4851   -3.4705    0.0000 C   0  0
   -2.2921   -3.2988    0.0000 C   0  0
   -0.9327   -2.8571    0.0000 C   0  0
   -0.3802   -2.2438    0.0000 C   0  0
    0.1713   -1.6316    0.0000 C   0  0
    0.9918   -1.7178    0.0000 C   0  0
    1.3273   -0.9641    0.0000 N   0  0
    0.7144   -0.4125    0.0000 C   0  0
    0.7144    0.4125    0.0000 C   0  0
    0.0000    0.8250    0.0000 C   0  0
   -0.7144    0.4125    0.0000 C   0  0
   -0.7144   -0.4125    0.0000 C   0  0
    0.0000   -0.8250    0.0000 N   0  0
   -5.2643   -3.3924    0.0000 C   0  0
   -6.0712   -3.2207    0.0000 C   0  0
   -6.6237   -3.8340    0.0000 C   0  0
   -6.4203   -4.4618    0.0000 F   0  0
   -7.2692   -3.6964    0.0000 F   0  0
   -7.0656   -4.3241    0.0000 F   0  0
   -6.8325   -0.8660    0.0000 C   0  0
   -7.0846   -0.0804    0.0000 C   0  0
   -7.8909    0.0941    0.0000 N   0  0
   -8.0589    0.6178    0.0000 H   0  0
   -3.5362   -2.5448    0.0000 H   0  0
  1  2  1  0
  2  3  1  0
  3  4  1  0
  4  5  1  0
  4 37  1  0
  5  6  1  0
  6  7  2  0
  7  8  1  0
  8  9  2  0
  9 10  1  0
  9 31  1  0
 10 11  1  0
 10 41  1  0
 11 12  2  0
 11 13  1  0
 13 14  2  0
 14 15  1  0
 15 16  2  0
 16 17  1  0
 16 18  1  0
 18 19  2  0
 18 20  1  0
 19 13  1  0
 20 21  3  0
 21 22  1  0
 22 23  2  0
 23 24  1  0
 24 25  2  0
 25 26  1  0
 26 27  2  0
 27 28  1  0
 28 29  2  0
 29 30  1  0
 30 22  1  0
 30 25  1  0
 31 32  2  0
 32  6  1  0
 32 33  1  0
 33 34  1  0
 33 35  1  0
 33 36  1  0
 37 38  1  0
 38 39  1  0
 39  2  1  0
 39 40  1  0
M  END
> <CMPD_CHEMBLID>
CHEMBL1170078

> <STANDARD_TYPE>
IC50

> <RELATION>
=

> <STANDARD_VALUE>
22

> <STANDARD_UNITS>
nM

> <Molecular_Weight>
531.57143

$$$$

  SciTegic11272012012D

 25 28  0  0  0  0            999 V2000
   -0.1742   -2.8725    0.0000 C   0  0
   -0.3790   -2.2450    0.0000 C   0  0
   -1.0247   -2.1088    0.0000 C   0  0
    0.1713   -1.6316    0.0000 N   0  0
    0.9918   -1.7179    0.0000 N   0  0
    1.3274   -0.9642    0.0000 C   0  0
    2.1348   -0.7925    0.0000 C   0  0
    2.7291   -1.3607    0.0000 C   0  0
    3.5209   -1.1289    0.0000 N   0  0
    3.7160   -0.3272    0.0000 C   0  0
    4.4419    0.0639    0.0000 N   0  0
    4.2941    0.8756    0.0000 C   0  0
    3.4765    0.9858    0.0000 C   0  0
    3.1193    0.2426    0.0000 C   0  0
    2.3276    0.0107    0.0000 C   0  0
    0.7145   -0.4125    0.0000 C   0  0
    0.7145    0.4125    0.0000 C   0  0
    1.4285    0.8267    0.0000 N   0  0
    0.0000    0.8250    0.0000 N   0  0
   -0.7145    0.4125    0.0000 C   0  0
   -0.7145   -0.4125    0.0000 N   0  0
    0.0000   -0.8250    0.0000 C   0  0
    1.4277    1.3767    0.0000 H   0  0
    1.9053    0.5525    0.0000 H   0  0
    4.9376   -0.1745    0.0000 H   0  0
  1  2  1  0
  2  3  1  0
  2  4  1  0
  4  5  1  0
  5  6  2  0
  6  7  1  0
  6 16  1  0
  7  8  2  0
  8  9  1  0
  9 10  2  0
 10 11  1  0
 11 12  1  0
 11 25  1  0
 12 13  2  0
 13 14  1  0
 14 10  1  0
 14 15  2  0
 15  7  1  0
 16 17  2  0
 17 18  1  0
 17 19  1  0
 18 23  1  0
 18 24  1  0
 19 20  2  0
 20 21  1  0
 21 22  2  0
 22  4  1  0
 22 16  1  0
M  END
> <CMPD_CHEMBLID>
CHEMBL1242293

> <STANDARD_TYPE>
IC50

> <RELATION>
=

> <STANDARD_VALUE>
22

> <STANDARD_UNITS>
nM

> <Molecular_Weight>
293.3265

$$$$

  SciTegic11272012012D

 41 44  0  0  0  0            999 V2000
    1.2861   -0.7425    0.0000 C   0  0
    0.7144   -0.4125    0.0000 N   0  0
    0.7144    0.4125    0.0000 C   0  0
    0.0000    0.8250    0.0000 C   0  0
   -0.7144    0.4125    0.0000 N   0  0
   -1.4302    0.8237    0.0000 C   0  0
   -2.1444    0.4100    0.0000 C   0  0
   -2.1416   -0.4150    0.0000 C   0  0
   -2.8546   -0.8300    0.0000 C   0  0
   -3.5706   -0.4200    0.0000 C   0  0
   -4.2849   -0.8337    0.0000 N   0  0
   -5.0006   -0.4225    0.0000 C   0  0
   -5.0017    0.2375    0.0000 O   0  0
   -5.7149   -0.8362    0.0000 N   0  0
   -6.4305   -0.4249    0.0000 C   0  0
   -7.1738   -0.7664    0.0000 C   0  0
   -7.7258   -0.1533    0.0000 C   0  0
   -8.5453   -0.2395    0.0000 C   0  0
   -9.3662   -0.3257    0.0000 C   0  0
  -10.1871   -0.4120    0.0000 C   0  0
  -10.5228   -1.1657    0.0000 C   0  0
  -11.3432   -1.2518    0.0000 C   0  0
  -11.8281   -0.5844    0.0000 C   0  0
  -12.6493   -0.6690    0.0000 N   0  0
  -11.4926    0.1692    0.0000 N   0  0
  -10.6721    0.2555    0.0000 C   0  0
   -7.3133    0.5611    0.0000 N   0  0
   -7.5817    1.1641    0.0000 C   0  0
   -6.5064    0.3896    0.0000 N   0  0
   -3.5734    0.4050    0.0000 C   0  0
   -2.8604    0.8200    0.0000 C   0  0
   -2.8633    1.6454    0.0000 C   0  0
   -3.4358    1.9738    0.0000 F   0  0
   -2.2927    1.9772    0.0000 F   0  0
   -2.8653    2.3054    0.0000 F   0  0
   -0.7144   -0.4125    0.0000 C   0  0
    0.0000   -0.8250    0.0000 C   0  0
  -12.9719   -0.2236    0.0000 H   0  0
  -12.8738   -1.1711    0.0000 H   0  0
   -5.7139   -1.3862    0.0000 H   0  0
   -4.2839   -1.3837    0.0000 H   0  0
  1  2  1  0
  2  3  1  0
  3  4  1  0
  4  5  1  0
  5  6  1  0
  5 36  1  0
  6  7  1  0
  7  8  2  0
  8  9  1  0
  9 10  2  0
 10 11  1  0
 10 30  1  0
 11 12  1  0
 11 41  1  0
 12 13  2  0
 12 14  1  0
 14 15  1  0
 14 40  1  0
 15 16  1  0
 16 17  2  0
 17 18  1  0
 17 27  1  0
 18 19  3  0
 19 20  1  0
 20 21  2  0
 21 22  1  0
 22 23  2  0
 23 24  1  0
 23 25  1  0
 24 38  1  0
 24 39  1  0
 25 26  2  0
 26 20  1  0
 27 28  1  0
 27 29  1  0
 29 15  2  0
 30 31  2  0
 31  7  1  0
 31 32  1  0
 32 33  1  0
 32 34  1  0
 32 35  1  0
 36 37  1  0
 37  2  1  0
M  END
> <CMPD_CHEMBLID>
CHEMBL2324929

> <STANDARD_TYPE>
IC50

> <RELATION>
=

> <STANDARD_VALUE>
22

> <STANDARD_UNITS>
nM

> <Molecular_Weight>
512.53009

$$$$

  SciTegic11272012012D

 29 32  0  0  0  0            999 V2000
    2.4997   -3.4156    0.0000 F   0  0
    2.5103   -2.7557    0.0000 C   0  0
    2.9228   -2.0412    0.0000 C   0  0
    2.1413   -2.0663    0.0000 C   0  0
    1.4273   -1.6521    0.0000 C   0  0
    0.8551   -1.9812    0.0000 O   0  0
    1.4285   -0.8267    0.0000 N   0  0
    0.7144   -0.4125    0.0000 C   0  0
    0.7144    0.4125    0.0000 C   0  0
    0.0000    0.8250    0.0000 C   0  0
    0.0000    1.6500    0.0000 C   0  0
   -0.7145    2.0625    0.0000 N   0  0
   -1.4290    1.6500    0.0000 C   0  0
   -1.4290    0.8250    0.0000 C   0  0
   -0.7144    0.4125    0.0000 C   0  0
   -0.7144   -0.4125    0.0000 C   0  0
    0.0000   -0.8250    0.0000 N   0  0
   -2.1438    2.0627    0.0000 C   0  0
   -2.8576    1.6491    0.0000 C   0  0
   -3.5728    2.0605    0.0000 C   0  0
   -3.5741    2.8855    0.0000 C   0  0
   -2.8603    3.2991    0.0000 C   0  0
   -2.1452    2.8877    0.0000 C   0  0
   -1.4318    3.3031    0.0000 O   0  0
   -1.4343    4.1285    0.0000 C   0  0
   -0.8640    4.4607    0.0000 F   0  0
   -2.0070    4.4566    0.0000 F   0  0
   -1.4367    4.7885    0.0000 F   0  0
    1.9053   -0.5525    0.0000 H   0  0
  1  2  1  0
  2  3  1  0
  3  4  1  0
  4  2  1  0
  4  5  1  0
  5  6  2  0
  5  7  1  0
  7  8  1  0
  7 29  1  0
  8  9  2  0
  9 10  1  0
 10 11  2  0
 11 12  1  0
 12 13  2  0
 13 14  1  0
 13 18  1  0
 14 15  2  0
 15 10  1  0
 15 16  1  0
 16 17  2  0
 17  8  1  0
 18 19  2  0
 19 20  1  0
 20 21  2  0
 21 22  1  0
 22 23  2  0
 23 18  1  0
 23 24  1  0
 24 25  1  0
 25 26  1  0
 25 27  1  0
 25 28  1  0
M  END
> <CMPD_CHEMBLID>
CHEMBL3689747

> <STANDARD_TYPE>
Ki

> <RELATION>
=

> <STANDARD_VALUE>
22

> <STANDARD_UNITS>
nM

> <Molecular_Weight>
391.31903

$$$$

  SciTegic11272012012D

 26 29  0  0  0  0            999 V2000
    2.0013   -0.4930    0.0000 C   0  0
    1.4302   -0.8238    0.0000 O   0  0
    0.7145   -0.4125    0.0000 C   0  0
    0.7145    0.4125    0.0000 C   0  0
    0.0000    0.8250    0.0000 C   0  0
   -0.1713    1.6316    0.0000 C   0  0
   -0.9918    1.7179    0.0000 C   0  0
   -1.6039    2.2694    0.0000 C   0  0
   -1.5190    3.0891    0.0000 N   0  0
   -2.1873    3.5736    0.0000 C   0  0
   -2.1036    4.3944    0.0000 C   0  0
   -2.7725    4.8773    0.0000 C   0  0
   -3.5252    4.5395    0.0000 C   0  0
   -3.6090    3.7188    0.0000 C   0  0
   -4.2111    3.4485    0.0000 F   0  0
   -2.9400    3.2358    0.0000 C   0  0
   -2.3184    1.8569    0.0000 N   0  0
   -2.1468    1.0499    0.0000 N   0  0
   -1.3273    0.9642    0.0000 C   0  0
   -0.7145    0.4125    0.0000 C   0  0
   -0.7145   -0.4125    0.0000 C   0  0
    0.0000   -0.8250    0.0000 C   0  0
   -0.0017   -1.6505    0.0000 O   0  0
   -0.5738   -1.9797    0.0000 C   0  0
   -2.8208    2.0806    0.0000 H   0  0
   -1.0169    3.3134    0.0000 H   0  0
  1  2  1  0
  2  3  1  0
  3  4  2  0
  4  5  1  0
  5  6  1  0
  6  7  1  0
  7  8  2  0
  8  9  1  0
  8 17  1  0
  9 10  1  0
  9 26  1  0
 10 11  2  0
 11 12  1  0
 12 13  2  0
 13 14  1  0
 14 15  1  0
 14 16  2  0
 16 10  1  0
 17 18  1  0
 17 25  1  0
 18 19  2  0
 19  7  1  0
 19 20  1  0
 20  5  2  0
 20 21  1  0
 21 22  2  0
 22  3  1  0
 22 23  1  0
 23 24  1  0
M  END
> <CMPD_CHEMBLID>
CHEMBL120077

> <STANDARD_TYPE>
IC50

> <RELATION>
=

> <STANDARD_VALUE>
22

> <STANDARD_UNITS>
nM

> <Molecular_Weight>
325.33694

$$$$

  SciTegic11272012012D

 29 32  0  0  0  0            999 V2000
    2.1456    0.2461    0.0000 C   0  0
    2.1445   -0.4139    0.0000 C   0  0
    2.8583   -0.8275    0.0000 C   0  0
    2.8570   -1.6525    0.0000 C   0  0
    2.1419   -2.0639    0.0000 C   0  0
    1.4281   -1.6502    0.0000 C   0  0
    1.4293   -0.8252    0.0000 C   0  0
    0.7145   -0.4125    0.0000 C   0  0
    0.7145    0.4125    0.0000 C   0  0
    0.0000    0.8250    0.0000 C   0  0
   -0.7145    0.4125    0.0000 C   0  0
   -1.4290    0.8250    0.0000 C   0  0
   -2.1434    0.4125    0.0000 C   0  0
   -2.8592    0.8237    0.0000 N   0  0
   -3.5735    0.4100    0.0000 C   0  0
   -3.5723   -0.2500    0.0000 O   0  0
   -4.2892    0.8213    0.0000 C   0  0
   -5.0707    0.7961    0.0000 C   0  0
   -4.6581    1.5106    0.0000 C   0  0
   -2.1434   -0.4125    0.0000 N   0  0
   -1.4290   -0.8250    0.0000 C   0  0
   -0.7145   -0.4125    0.0000 C   0  0
    0.0000   -0.8250    0.0000 C   0  0
    2.1406   -2.8894    0.0000 C   0  0
    1.5684   -3.2183    0.0000 C   0  0
    2.1393   -3.5494    0.0000 C   0  0
    2.8546   -3.3037    0.0000 O   0  0
    2.8537   -3.8537    0.0000 H   0  0
   -2.8602    1.3738    0.0000 H   0  0
  1  2  1  0
  2  3  2  0
  3  4  1  0
  4  5  2  0
  5  6  1  0
  5 24  1  0
  6  7  2  0
  7  2  1  0
  7  8  1  0
  8  9  2  0
  9 10  1  0
 10 11  2  0
 11 12  1  0
 12 13  2  0
 13 14  1  0
 13 20  1  0
 14 15  1  0
 14 29  1  0
 15 16  2  0
 15 17  1  0
 17 18  1  0
 18 19  1  0
 19 17  1  0
 20 21  2  0
 21 22  1  0
 22 11  1  0
 22 23  2  0
 23  8  1  0
 24 25  1  0
 24 26  1  0
 24 27  1  0
 27 28  1  0
M  END
> <CMPD_CHEMBLID>
CHEMBL3685127

> <STANDARD_TYPE>
Ki

> <RELATION>
=

> <STANDARD_VALUE>
22

> <STANDARD_UNITS>
nM

> <Molecular_Weight>
360.44886

$$$$

  SciTegic11272012012D

 30 33  0  0  0  0            999 V2000
   -0.5785   -2.9632    0.0000 C   0  0
   -0.0086   -3.2960    0.0000 C   0  0
    0.7086   -2.8872    0.0000 C   0  0
    1.4216   -3.3022    0.0000 C   0  0
    2.1375   -2.8922    0.0000 C   0  0
    2.1403   -2.0672    0.0000 C   0  0
    1.4273   -1.6521    0.0000 C   0  0
    1.4285   -0.8267    0.0000 N   0  0
    0.7144   -0.4125    0.0000 C   0  0
    0.7144    0.4125    0.0000 N   0  0
    0.0000    0.8250    0.0000 C   0  0
   -0.7144    0.4125    0.0000 C   0  0
   -1.4289    0.8250    0.0000 C   0  0
   -2.1434    0.4125    0.0000 C   0  0
   -2.1434   -0.4125    0.0000 C   0  0
   -2.7149   -0.7425    0.0000 O   0  0
   -1.4289   -0.8250    0.0000 N   0  0
   -1.4289   -1.4850    0.0000 C   0  0
   -0.7144   -0.4125    0.0000 C   0  0
    0.0000   -0.8250    0.0000 N   0  0
   -2.8582    0.8252    0.0000 C   0  0
   -2.8596    1.6502    0.0000 C   0  0
   -2.2886    1.9811    0.0000 Cl  0  0
   -3.5747    2.0616    0.0000 C   0  0
   -4.2885    1.6480    0.0000 C   0  0
   -4.2872    0.8230    0.0000 C   0  0
   -3.5721    0.4116    0.0000 C   0  0
   -3.5711   -0.2484    0.0000 Cl  0  0
    0.7114   -2.0622    0.0000 C   0  0
    1.9053   -0.5525    0.0000 H   0  0
  1  2  1  0
  2  3  1  0
  3  4  2  0
  4  5  1  0
  5  6  2  0
  6  7  1  0
  7  8  1  0
  7 29  2  0
  8  9  1  0
  8 30  1  0
  9 10  2  0
 10 11  1  0
 11 12  2  0
 12 13  1  0
 13 14  2  0
 14 15  1  0
 14 21  1  0
 15 16  2  0
 15 17  1  0
 17 18  1  0
 17 19  1  0
 19 12  1  0
 19 20  2  0
 20  9  1  0
 21 22  2  0
 22 23  1  0
 22 24  1  0
 24 25  2  0
 25 26  1  0
 26 27  2  0
 27 21  1  0
 27 28  1  0
 29  3  1  0
M  END
> <CMPD_CHEMBLID>
CHEMBL565372

> <STANDARD_TYPE>
IC50

> <RELATION>
=

> <STANDARD_VALUE>
22

> <STANDARD_UNITS>
nM

> <Molecular_Weight>
425.31052

$$$$

  SciTegic11272012012D

 41 45  0  0  0  0            999 V2000
   -7.6973    1.3688    0.0000 C   0  0
   -8.1414    0.8806    0.0000 C   0  0
   -7.8909    0.0941    0.0000 N   0  0
   -8.4451   -0.5169    0.0000 C   0  0
   -8.1931   -1.3025    0.0000 C   0  0
   -7.3868   -1.4771    0.0000 N   0  0
   -7.1330   -2.2625    0.0000 C   0  0
   -6.3260   -2.4360    0.0000 C   0  0
   -5.7738   -1.8230    0.0000 C   0  0
   -4.9669   -1.9947    0.0000 C   0  0
   -4.7120   -2.7794    0.0000 C   0  0
   -3.9050   -2.9528    0.0000 N   0  0
   -3.6512   -3.7383    0.0000 C   0  0
   -4.0938   -4.2279    0.0000 O   0  0
   -2.8442   -3.9117    0.0000 C   0  0
   -2.5894   -4.6964    0.0000 C   0  0
   -1.7825   -4.8681    0.0000 C   0  0
   -1.2303   -4.2551    0.0000 C   0  0
   -0.5848   -4.3925    0.0000 C   0  0
   -1.4851   -3.4705    0.0000 C   0  0
   -2.2921   -3.2988    0.0000 C   0  0
   -0.9327   -2.8571    0.0000 C   0  0
   -0.3802   -2.2438    0.0000 C   0  0
    0.1713   -1.6316    0.0000 C   0  0
    0.9918   -1.7178    0.0000 C   0  0
    1.3273   -0.9641    0.0000 N   0  0
    0.7144   -0.4125    0.0000 C   0  0
    0.7144    0.4125    0.0000 C   0  0
    0.0000    0.8250    0.0000 C   0  0
   -0.7144    0.4125    0.0000 C   0  0
   -0.7144   -0.4125    0.0000 C   0  0
    0.0000   -0.8250    0.0000 N   0  0
   -5.2643   -3.3924    0.0000 C   0  0
   -6.0712   -3.2207    0.0000 C   0  0
   -6.6237   -3.8340    0.0000 C   0  0
   -6.4203   -4.4618    0.0000 F   0  0
   -7.2692   -3.6964    0.0000 F   0  0
   -7.0656   -4.3241    0.0000 F   0  0
   -6.8325   -0.8660    0.0000 C   0  0
   -7.0846   -0.0804    0.0000 C   0  0
   -3.5362   -2.5448    0.0000 H   0  0
  1  2  1  0
  2  3  1  0
  3  4  1  0
  4  5  1  0
  5  6  1  0
  6  7  1  0
  6 39  1  0
  7  8  1  0
  8  9  2  0
  9 10  1  0
 10 11  2  0
 11 12  1  0
 11 33  1  0
 12 13  1  0
 12 41  1  0
 13 14  2  0
 13 15  1  0
 15 16  2  0
 16 17  1  0
 17 18  2  0
 18 19  1  0
 18 20  1  0
 20 21  2  0
 20 22  1  0
 21 15  1  0
 22 23  3  0
 23 24  1  0
 24 25  2  0
 25 26  1  0
 26 27  2  0
 27 28  1  0
 28 29  2  0
 29 30  1  0
 30 31  2  0
 31 32  1  0
 32 24  1  0
 32 27  1  0
 33 34  2  0
 34  8  1  0
 34 35  1  0
 35 36  1  0
 35 37  1  0
 35 38  1  0
 39 40  1  0
 40  3  1  0
M  END
> <CMPD_CHEMBLID>
CHEMBL1169882

> <STANDARD_TYPE>
IC50

> <RELATION>
=

> <STANDARD_VALUE>
23

> <STANDARD_UNITS>
nM

> <Molecular_Weight>
545.59801

$$$$

  SciTegic11272012012D

 25 28  0  0  0  0            999 V2000
    1.4302   -0.8238    0.0000 N   0  0
    0.7145   -0.4125    0.0000 C   0  0
    0.7145    0.4125    0.0000 N   0  0
    0.0000    0.8250    0.0000 C   0  0
   -0.7145    0.4125    0.0000 N   0  0
   -0.7145   -0.4125    0.0000 C   0  0
    0.0000   -0.8250    0.0000 C   0  0
   -0.1713   -1.6316    0.0000 C   0  0
   -0.9918   -1.7178    0.0000 N   0  0
   -1.3273   -0.9642    0.0000 N   0  0
   -2.1348   -0.7925    0.0000 C   0  0
   -2.8320   -1.1903    0.0000 C   0  0
   -3.2226   -0.4637    0.0000 C   0  0
   -2.4959   -0.0730    0.0000 C   0  0
    0.3811   -2.2450    0.0000 C   0  0
    1.1959   -2.1345    0.0000 C   0  0
    1.7002   -2.7874    0.0000 C   0  0
    1.3870   -3.5506    0.0000 C   0  0
    1.7905   -4.0729    0.0000 Br  0  0
    0.5694   -3.6610    0.0000 C   0  0
    0.2544   -4.4240    0.0000 O   0  0
    0.0651   -3.0081    0.0000 C   0  0
   -0.2907   -4.4968    0.0000 H   0  0
    1.9062   -0.5481    0.0000 H   0  0
    1.4312   -1.3738    0.0000 H   0  0
  1  2  1  0
  1 24  1  0
  1 25  1  0
  2  3  2  0
  3  4  1  0
  4  5  2  0
  5  6  1  0
  6  7  2  0
  7  2  1  0
  7  8  1  0
  8  9  2  0
  8 15  1  0
  9 10  1  0
 10  6  1  0
 10 11  1  0
 11 12  1  0
 12 13  1  0
 13 14  1  0
 14 11  1  0
 15 16  2  0
 16 17  1  0
 17 18  2  0
 18 19  1  0
 18 20  1  0
 20 21  1  0
 20 22  2  0
 21 23  1  0
 22 15  1  0
M  END
> <CMPD_CHEMBLID>
CHEMBL1242287

> <STANDARD_TYPE>
IC50

> <RELATION>
=

> <STANDARD_VALUE>
23

> <STANDARD_UNITS>
nM

> <Molecular_Weight>
360.20856

$$$$

  SciTegic11272012012D

 42 46  0  0  0  0            999 V2000
   -0.9689    2.8655    0.0000 C   0  0
   -0.7042    3.4701    0.0000 C   0  0
   -1.0957    4.0015    0.0000 C   0  0
   -1.3602    3.3969    0.0000 C   0  0
    0.1147    3.5619    0.0000 C   0  0
    0.6710    2.9527    0.0000 C   0  0
    1.4119    3.2994    0.0000 C   0  0
    2.1288    2.8901    0.0000 N   0  0
    2.1333    2.0647    0.0000 C   0  0
    1.5635    1.7317    0.0000 O   0  0
    2.8502    1.6555    0.0000 N   0  0
    2.8547    0.8300    0.0000 C   0  0
    3.5707    0.4200    0.0000 C   0  0
    3.5735   -0.4050    0.0000 C   0  0
    2.8604   -0.8200    0.0000 C   0  0
    2.1445   -0.4100    0.0000 C   0  0
    1.4302   -0.8237    0.0000 N   0  0
    0.7145   -0.4125    0.0000 C   0  0
    0.7145    0.4125    0.0000 N   0  0
    0.0000    0.8250    0.0000 C   0  0
   -0.7145    0.4125    0.0000 N   0  0
   -0.7145   -0.4125    0.0000 C   0  0
   -1.4290   -0.8250    0.0000 C   0  0
   -1.4290   -1.6500    0.0000 C   0  0
   -0.7145   -2.0625    0.0000 C   0  0
    0.0000   -1.6500    0.0000 C   0  0
    0.0000   -0.8250    0.0000 C   0  0
    2.1417    0.4150    0.0000 C   0  0
    1.3304    4.1133    0.0000 N   0  0
    0.5222    4.2792    0.0000 N   0  0
    1.9432    4.6662    0.0000 C   0  0
    2.7429    4.4754    0.0000 C   0  0
    3.3096    5.0749    0.0000 C   0  0
    3.0738    5.8655    0.0000 C   0  0
    2.2712    6.0565    0.0000 C   0  0
    2.0336    6.8471    0.0000 N   0  0
    1.7045    5.4570    0.0000 C   0  0
    1.4983    6.9737    0.0000 H   0  0
    2.4107    7.2474    0.0000 H   0  0
    1.4312   -1.3738    0.0000 H   0  0
    3.3251    1.9330    0.0000 H   0  0
    2.6036    3.1676    0.0000 H   0  0
  1  2  1  0
  2  3  1  0
  2  4  1  0
  2  5  1  0
  5  6  1  0
  6  7  2  0
  7  8  1  0
  7 29  1  0
  8  9  1  0
  8 42  1  0
  9 10  2  0
  9 11  1  0
 11 12  1  0
 11 41  1  0
 12 13  2  0
 13 14  1  0
 14 15  2  0
 15 16  1  0
 16 17  1  0
 16 28  2  0
 17 18  1  0
 17 40  1  0
 18 19  2  0
 19 20  1  0
 20 21  2  0
 21 22  1  0
 22 23  2  0
 23 24  1  0
 24 25  2  0
 25 26  1  0
 26 27  2  0
 27 18  1  0
 27 22  1  0
 28 12  1  0
 29 30  1  0
 29 31  1  0
 30  5  2  0
 31 32  2  0
 32 33  1  0
 33 34  2  0
 34 35  1  0
 35 36  1  0
 35 37  2  0
 36 38  1  0
 36 39  1  0
 37 31  1  0
M  END
> <CMPD_CHEMBLID>
CHEMBL2403875

> <STANDARD_TYPE>
IC50

> <RELATION>
=

> <STANDARD_VALUE>
23

> <STANDARD_UNITS>
nM

> <Molecular_Weight>
492.57492

$$$$

  SciTegic11272012012D

 36 40  0  0  0  0            999 V2000
    0.2263   -4.5663    0.0000 C   0  0
   -0.4193   -4.4289    0.0000 C   0  0
   -0.9714   -5.0420    0.0000 C   0  0
   -1.7784   -4.8703    0.0000 C   0  0
   -2.0332   -4.0856    0.0000 C   0  0
   -1.4811   -3.4726    0.0000 C   0  0
   -0.6741   -3.6442    0.0000 C   0  0
   -0.1229   -3.0298    0.0000 C   0  0
   -0.3790   -2.2450    0.0000 C   0  0
    0.1713   -1.6316    0.0000 N   0  0
    0.9918   -1.7178    0.0000 C   0  0
    1.3273   -0.9642    0.0000 N   0  0
    0.7145   -0.4125    0.0000 C   0  0
    0.7145    0.4125    0.0000 C   0  0
    1.4285    0.8267    0.0000 N   0  0
    1.4273    1.6522    0.0000 C   0  0
    1.8375    2.3178    0.0000 C   0  0
    1.0125    2.3149    0.0000 C   0  0
    0.0000    0.8250    0.0000 N   0  0
   -0.7145    0.4125    0.0000 C   0  0
   -0.7145   -0.4125    0.0000 N   0  0
    0.0000   -0.8250    0.0000 C   0  0
   -2.8402   -3.9122    0.0000 C   0  0
   -3.2828   -4.4019    0.0000 O   0  0
   -3.0941   -3.1267    0.0000 N   0  0
   -3.9011   -2.9533    0.0000 C   0  0
   -4.2248   -2.2021    0.0000 C   0  0
   -5.0453   -2.2882    0.0000 C   0  0
   -5.2170   -3.0952    0.0000 O   0  0
   -4.5026   -3.5078    0.0000 N   0  0
   -5.5966   -1.6757    0.0000 C   0  0
   -5.3930   -1.0479    0.0000 F   0  0
   -6.2422   -1.8130    0.0000 F   0  0
   -6.0384   -1.1854    0.0000 F   0  0
   -2.7253   -2.7187    0.0000 H   0  0
    1.9053    0.5525    0.0000 H   0  0
  1  2  1  0
  2  3  2  0
  3  4  1  0
  4  5  2  0
  5  6  1  0
  5 23  1  0
  6  7  2  0
  7  2  1  0
  7  8  1  0
  8  9  2  0
  9 10  1  0
 10 11  1  0
 11 12  2  0
 12 13  1  0
 13 14  2  0
 14 15  1  0
 14 19  1  0
 15 16  1  0
 15 36  1  0
 16 17  1  0
 17 18  1  0
 18 16  1  0
 19 20  2  0
 20 21  1  0
 21 22  2  0
 22 10  1  0
 22 13  1  0
 23 24  2  0
 23 25  1  0
 25 26  1  0
 25 35  1  0
 26 27  1  0
 27 28  2  0
 28 29  1  0
 28 31  1  0
 29 30  1  0
 30 26  2  0
 31 32  1  0
 31 33  1  0
 31 34  1  0
M  END
> <CMPD_CHEMBLID>
CHEMBL1169876

> <STANDARD_TYPE>
IC50

> <RELATION>
=

> <STANDARD_VALUE>
23

> <STANDARD_UNITS>
nM

> <Molecular_Weight>
469.41923

$$$$

  SciTegic11272012012D

 41 46  0  0  0  0            999 V2000
   -2.0519   -3.8375    0.0000 C   0  0
   -1.5745   -3.3817    0.0000 N   0  0
   -0.7828   -3.6135    0.0000 C   0  0
   -0.1861   -3.0438    0.0000 C   0  0
   -0.3810   -2.2449    0.0000 N   0  0
   -1.1730   -2.0103    0.0000 C   0  0
   -1.7696   -2.5800    0.0000 C   0  0
    0.1713   -1.6316    0.0000 C   0  0
    0.9918   -1.7178    0.0000 C   0  0
    1.3273   -0.9641    0.0000 C   0  0
    0.7144   -0.4125    0.0000 C   0  0
    0.7144    0.4125    0.0000 C   0  0
    0.0000    0.8250    0.0000 C   0  0
   -0.7144    0.4125    0.0000 C   0  0
   -0.7144   -0.4125    0.0000 C   0  0
    0.0000   -0.8250    0.0000 C   0  0
   -0.0017    1.6504    0.0000 C   0  0
    0.5693    1.9814    0.0000 O   0  0
   -0.7171    2.0622    0.0000 N   0  0
   -0.7188    2.8876    0.0000 C   0  0
   -1.4334    3.3002    0.0000 C   0  0
   -1.4334    4.1252    0.0000 C   0  0
   -0.7189    4.5377    0.0000 C   0  0
   -0.7189    5.1977    0.0000 C   0  0
   -0.0044    4.1252    0.0000 C   0  0
    0.7113    4.5365    0.0000 N   0  0
    1.4256    4.1227    0.0000 C   0  0
    2.1415    4.5328    0.0000 N   0  0
    2.8546    4.1178    0.0000 C   0  0
    2.8517    3.2928    0.0000 C   0  0
    2.1358    2.8828    0.0000 C   0  0
    1.4228    3.2977    0.0000 N   0  0
    2.1330    2.0573    0.0000 C   0  0
    2.8454    1.6412    0.0000 C   0  0
    2.8412    0.8162    0.0000 C   0  0
    2.1248    0.4073    0.0000 N   0  0
    1.4123    0.8234    0.0000 C   0  0
    1.4165    1.6484    0.0000 C   0  0
   -0.0044    3.3002    0.0000 C   0  0
    0.7122    5.0865    0.0000 H   0  0
   -1.1930    1.7863    0.0000 H   0  0
  1  2  1  0
  2  3  1  0
  3  4  1  0
  4  5  1  0
  5  6  1  0
  5  8  1  0
  6  7  1  0
  7  2  1  0
  8  9  1  0
  9 10  1  0
 10 11  1  0
 11 12  2  0
 12 13  1  0
 13 14  2  0
 13 17  1  0
 14 15  1  0
 15 16  2  0
 16  8  1  0
 16 11  1  0
 17 18  2  0
 17 19  1  0
 19 20  1  0
 19 41  1  0
 20 21  2  0
 21 22  1  0
 22 23  2  0
 23 24  1  0
 23 25  1  0
 25 26  1  0
 25 39  2  0
 26 27  1  0
 26 40  1  0
 27 28  2  0
 28 29  1  0
 29 30  2  0
 30 31  1  0
 31 32  2  0
 31 33  1  0
 32 27  1  0
 33 34  2  0
 34 35  1  0
 35 36  2  0
 36 37  1  0
 37 38  2  0
 38 33  1  0
 39 20  1  0
M  END
> <CMPD_CHEMBLID>
CHEMBL3690083

> <STANDARD_TYPE>
IC50

> <RELATION>
=

> <STANDARD_VALUE>
23

> <STANDARD_UNITS>
nM

> <Molecular_Weight>
519.64002

$$$$

  SciTegic11272012012D

 28 32  0  0  0  0            999 V2000
    0.7144   -0.4125    0.0000 C   0  0
    0.7144    0.4125    0.0000 C   0  0
    0.0000    0.8250    0.0000 O   0  0
   -0.7144    0.4125    0.0000 C   0  0
   -1.4289    0.8250    0.0000 C   0  0
   -2.1434    0.4125    0.0000 C   0  0
   -2.8579    0.8250    0.0000 C   0  0
   -2.8596    1.6504    0.0000 N   0  0
   -3.5750    2.0622    0.0000 C   0  0
   -3.5779    2.8872    0.0000 C   0  0
   -4.2938    3.2972    0.0000 C   0  0
   -5.0069    2.8822    0.0000 C   0  0
   -5.0040    2.0572    0.0000 C   0  0
   -4.2881    1.6472    0.0000 C   0  0
   -5.7174    1.6420    0.0000 C   0  0
   -6.4340    2.0509    0.0000 C   0  0
   -7.1464    1.6348    0.0000 C   0  0
   -7.1422    0.8098    0.0000 C   0  0
   -6.4257    0.4009    0.0000 C   0  0
   -5.7133    0.8170    0.0000 C   0  0
   -3.5723    0.4125    0.0000 N   0  0
   -3.5723   -0.4125    0.0000 C   0  0
   -2.8578   -0.8250    0.0000 N   0  0
   -2.1434   -0.4125    0.0000 C   0  0
   -1.4289   -0.8250    0.0000 C   0  0
   -0.7144   -0.4125    0.0000 C   0  0
    0.0000   -0.8250    0.0000 O   0  0
   -2.3837    1.9263    0.0000 H   0  0
  1  2  1  0
  2  3  1  0
  3  4  1  0
  4  5  2  0
  5  6  1  0
  6  7  2  0
  7  8  1  0
  7 21  1  0
  8  9  1  0
  8 28  1  0
  9 10  2  0
 10 11  1  0
 11 12  2  0
 12 13  1  0
 13 14  2  0
 13 15  1  0
 14  9  1  0
 15 16  2  0
 16 17  1  0
 17 18  2  0
 18 19  1  0
 19 20  2  0
 20 15  1  0
 21 22  2  0
 22 23  1  0
 23 24  2  0
 24  6  1  0
 24 25  1  0
 25 26  2  0
 26  4  1  0
 26 27  1  0
 27  1  1  0
M  END
> <CMPD_CHEMBLID>
CHEMBL3040806

> <STANDARD_TYPE>
IC50

> <RELATION>
=

> <STANDARD_VALUE>
24

> <STANDARD_UNITS>
nM

> <Molecular_Weight>
355.38928

$$$$

  SciTegic11272012012D

 33 36  0  0  0  0            999 V2000
    2.1433    0.2500    0.0000 C   0  0
    2.1445   -0.4100    0.0000 C   0  0
    1.4302   -0.8237    0.0000 O   0  0
    0.7145   -0.4125    0.0000 C   0  0
    0.7145    0.4125    0.0000 C   0  0
    0.0000    0.8250    0.0000 C   0  0
   -0.7145    0.4125    0.0000 C   0  0
   -0.7145   -0.4125    0.0000 N   0  0
    0.0000   -0.8250    0.0000 C   0  0
   -0.0017   -1.6504    0.0000 N   0  0
    0.0000    1.6504    0.0000 C   0  0
    0.6667    2.1244    0.0000 C   0  0
    0.4105    2.9086    0.0000 N   0  0
   -0.4145    2.9073    0.0000 N   0  0
   -0.6682    2.1223    0.0000 C   0  0
   -0.9007    3.5743    0.0000 C   0  0
   -0.6245    4.3488    0.0000 C   0  0
   -1.1593    4.9770    0.0000 C   0  0
   -1.9707    4.8280    0.0000 N   0  0
   -2.2474    4.0508    0.0000 C   0  0
   -1.7126    3.4225    0.0000 C   0  0
    2.8602   -0.8213    0.0000 C   0  0
    3.5747   -0.4088    0.0000 C   0  0
    3.5747    0.2512    0.0000 Cl  0  0
    4.2892   -0.8213    0.0000 C   0  0
    4.2892   -1.6463    0.0000 C   0  0
    3.5747   -2.0588    0.0000 C   0  0
    3.5747   -2.7188    0.0000 F   0  0
    2.8602   -1.6463    0.0000 C   0  0
    2.2887   -1.9763    0.0000 Cl  0  0
   -2.3273    5.2468    0.0000 H   0  0
   -0.4784   -1.9248    0.0000 H   0  0
    0.4742   -1.9263    0.0000 H   0  0
  1  2  1  0
  2  3  1  0
  2 22  1  0
  3  4  1  0
  4  5  2  0
  5  6  1  0
  6  7  2  0
  6 11  1  0
  7  8  1  0
  8  9  2  0
  9  4  1  0
  9 10  1  0
 10 32  1  0
 10 33  1  0
 11 12  1  0
 12 13  2  0
 13 14  1  0
 14 15  1  0
 14 16  1  0
 15 11  2  0
 16 17  1  0
 17 18  1  0
 18 19  1  0
 19 20  1  0
 19 31  1  0
 20 21  1  0
 21 16  1  0
 22 23  2  0
 23 24  1  0
 23 25  1  0
 25 26  2  0
 26 27  1  0
 27 28  1  0
 27 29  2  0
 29 22  1  0
 29 30  1  0
M  END
> <CMPD_CHEMBLID>
CHEMBL601719

> <STANDARD_TYPE>
IC50

> <RELATION>
=

> <STANDARD_VALUE>
24

> <STANDARD_UNITS>
nM

> <Molecular_Weight>
450.33668

$$$$

  SciTegic11272012012D

 40 44  0  0  0  0            999 V2000
   -9.0990   -0.3948    0.0000 C   0  0
   -8.4530   -0.5300    0.0000 N   0  0
   -7.9030    0.0849    0.0000 C   0  0
   -7.0955   -0.0840    0.0000 C   0  0
   -6.8379   -0.8678    0.0000 N   0  0
   -6.0303   -1.0384    0.0000 C   0  0
   -5.7738   -1.8230    0.0000 C   0  0
   -4.9669   -1.9947    0.0000 C   0  0
   -4.7120   -2.7794    0.0000 C   0  0
   -3.9050   -2.9528    0.0000 N   0  0
   -3.6512   -3.7383    0.0000 C   0  0
   -4.0938   -4.2279    0.0000 O   0  0
   -2.8442   -3.9117    0.0000 C   0  0
   -2.5894   -4.6964    0.0000 C   0  0
   -1.7825   -4.8681    0.0000 C   0  0
   -1.2303   -4.2551    0.0000 C   0  0
   -0.5848   -4.3925    0.0000 C   0  0
   -1.4851   -3.4705    0.0000 C   0  0
   -2.2921   -3.2988    0.0000 C   0  0
   -0.9327   -2.8571    0.0000 C   0  0
   -0.3802   -2.2438    0.0000 C   0  0
    0.1713   -1.6316    0.0000 C   0  0
    0.9918   -1.7178    0.0000 C   0  0
    1.3273   -0.9641    0.0000 N   0  0
    0.7144   -0.4125    0.0000 C   0  0
    0.7144    0.4125    0.0000 C   0  0
    0.0000    0.8250    0.0000 C   0  0
   -0.7144    0.4125    0.0000 C   0  0
   -0.7144   -0.4125    0.0000 C   0  0
    0.0000   -0.8250    0.0000 N   0  0
   -5.2643   -3.3924    0.0000 C   0  0
   -6.0712   -3.2207    0.0000 C   0  0
   -6.3260   -2.4360    0.0000 C   0  0
   -6.6237   -3.8340    0.0000 C   0  0
   -6.4203   -4.4618    0.0000 F   0  0
   -7.2692   -3.6964    0.0000 F   0  0
   -7.0656   -4.3241    0.0000 F   0  0
   -7.3881   -1.4827    0.0000 C   0  0
   -8.1956   -1.3137    0.0000 C   0  0
   -3.5362   -2.5448    0.0000 H   0  0
  1  2  1  0
  2  3  1  0
  3  4  1  0
  4  5  1  0
  5  6  1  0
  5 38  1  0
  6  7  1  0
  7  8  2  0
  8  9  1  0
  9 10  1  0
  9 31  2  0
 10 11  1  0
 10 40  1  0
 11 12  2  0
 11 13  1  0
 13 14  2  0
 14 15  1  0
 15 16  2  0
 16 17  1  0
 16 18  1  0
 18 19  2  0
 18 20  1  0
 19 13  1  0
 20 21  3  0
 21 22  1  0
 22 23  2  0
 23 24  1  0
 24 25  2  0
 25 26  1  0
 26 27  2  0
 27 28  1  0
 28 29  2  0
 29 30  1  0
 30 22  1  0
 30 25  1  0
 31 32  1  0
 32 33  2  0
 32 34  1  0
 33  7  1  0
 34 35  1  0
 34 36  1  0
 34 37  1  0
 38 39  1  0
 39  2  1  0
M  END
> <CMPD_CHEMBLID>
CHEMBL1171282

> <STANDARD_TYPE>
IC50

> <RELATION>
=

> <STANDARD_VALUE>
24

> <STANDARD_UNITS>
nM

> <Molecular_Weight>
531.57143

$$$$

  SciTegic11272012012D

 41 46  0  0  0  0            999 V2000
    1.2861   -0.7425    0.0000 C   0  0
    0.7144   -0.4125    0.0000 C   0  0
    0.7144    0.4125    0.0000 C   0  0
    0.0000    0.8250    0.0000 C   0  0
   -0.7144    0.4125    0.0000 C   0  0
   -0.7144   -0.4125    0.0000 C   0  0
   -1.4290   -0.8250    0.0000 N   0  0
   -1.4290   -1.6500    0.0000 N   0  0
   -0.7144   -2.0625    0.0000 C   0  0
   -0.7127   -2.8879    0.0000 N   0  0
    0.0027   -3.2997    0.0000 C   0  0
    0.0056   -4.1247    0.0000 C   0  0
    0.7215   -4.5347    0.0000 C   0  0
    1.4345   -4.1197    0.0000 C   0  0
    1.4317   -3.2947    0.0000 C   0  0
    0.7158   -2.8847    0.0000 C   0  0
    2.1508   -4.5300    0.0000 S   0  0
    2.7211   -4.1978    0.0000 O   0  0
    2.7237   -4.8577    0.0000 O   0  0
    2.1542   -5.3554    0.0000 N   0  0
    2.8705   -5.7656    0.0000 C   0  0
    2.8739   -6.5911    0.0000 C   0  0
    3.5902   -7.0014    0.0000 N   0  0
    3.6705   -7.8154    0.0000 C   0  0
    4.4784   -7.9825    0.0000 C   0  0
    4.8870   -7.2657    0.0000 C   0  0
    4.3315   -6.6557    0.0000 C   0  0
    0.0000   -1.6500    0.0000 N   0  0
    0.0000   -0.8250    0.0000 C   0  0
    0.0000    1.6504    0.0000 C   0  0
   -0.7151    2.0618    0.0000 C   0  0
   -0.7164    2.8868    0.0000 C   0  0
   -0.0026    3.3005    0.0000 C   0  0
    0.7125    2.8891    0.0000 C   0  0
    1.4962    3.1453    0.0000 N   0  0
    1.9823    2.4786    0.0000 C   0  0
    1.4984    1.8104    0.0000 C   0  0
    0.7138    2.0641    0.0000 C   0  0
    1.6653    3.6687    0.0000 H   0  0
    1.6789   -5.6322    0.0000 H   0  0
   -1.1886   -3.1638    0.0000 H   0  0
  1  2  1  0
  2  3  2  0
  3  4  1  0
  4  5  2  0
  4 30  1  0
  5  6  1  0
  6  7  2  0
  7  8  1  0
  8  9  2  0
  9 10  1  0
  9 28  1  0
 10 11  1  0
 10 41  1  0
 11 12  2  0
 12 13  1  0
 13 14  2  0
 14 15  1  0
 14 17  1  0
 15 16  2  0
 16 11  1  0
 17 18  2  0
 17 19  2  0
 17 20  1  0
 20 21  1  0
 20 40  1  0
 21 22  1  0
 22 23  1  0
 23 24  1  0
 24 25  1  0
 25 26  1  0
 26 27  1  0
 27 23  1  0
 28 29  2  0
 29  2  1  0
 29  6  1  0
 30 31  2  0
 31 32  1  0
 32 33  2  0
 33 34  1  0
 34 35  1  0
 35 36  1  0
 35 39  1  0
 36 37  2  0
 37 38  1  0
 38 30  1  0
 38 34  2  0
M  END
> <CMPD_CHEMBLID>
CHEMBL251015

> <STANDARD_TYPE>
Ki

> <RELATION>
=

> <STANDARD_VALUE>
24

> <STANDARD_UNITS>
nM

> <Molecular_Weight>
527.64056

$$$$

  SciTegic11272012012D

 26 29  0  0  0  0            999 V2000
    1.4302   -0.8237    0.0000 N   0  0
    0.7145   -0.4125    0.0000 C   0  0
    0.7145    0.4125    0.0000 N   0  0
    0.0000    0.8250    0.0000 C   0  0
   -0.7145    0.4125    0.0000 N   0  0
   -0.7145   -0.4125    0.0000 C   0  0
    0.0000   -0.8250    0.0000 C   0  0
   -0.1713   -1.6316    0.0000 C   0  0
   -0.9918   -1.7178    0.0000 N   0  0
   -1.3273   -0.9642    0.0000 N   0  0
   -2.1348   -0.7925    0.0000 C   0  0
   -2.7753   -1.2969    0.0000 C   0  0
   -3.4553   -0.8297    0.0000 C   0  0
   -3.2211   -0.0386    0.0000 C   0  0
   -2.3964   -0.0169    0.0000 C   0  0
    0.3811   -2.2450    0.0000 C   0  0
    1.1959   -2.1345    0.0000 C   0  0
    1.7002   -2.7874    0.0000 C   0  0
    2.5185   -2.6787    0.0000 O   0  0
    1.3870   -3.5506    0.0000 C   0  0
    0.5694   -3.6610    0.0000 C   0  0
    0.3188   -4.2715    0.0000 F   0  0
    0.0651   -3.0081    0.0000 C   0  0
    2.8542   -3.1144    0.0000 H   0  0
    1.9062   -0.5481    0.0000 H   0  0
    1.4312   -1.3738    0.0000 H   0  0
  1  2  1  0
  1 25  1  0
  1 26  1  0
  2  3  2  0
  3  4  1  0
  4  5  2  0
  5  6  1  0
  6  7  2  0
  7  2  1  0
  7  8  1  0
  8  9  2  0
  8 16  1  0
  9 10  1  0
 10  6  1  0
 10 11  1  0
 11 12  1  0
 12 13  1  0
 13 14  1  0
 14 15  1  0
 15 11  1  0
 16 17  2  0
 17 18  1  0
 18 19  1  0
 18 20  2  0
 19 24  1  0
 20 21  1  0
 21 22  1  0
 21 23  2  0
 23 16  1  0
M  END
> <CMPD_CHEMBLID>
CHEMBL1242199

> <STANDARD_TYPE>
IC50

> <RELATION>
=

> <STANDARD_VALUE>
24

> <STANDARD_UNITS>
nM

> <Molecular_Weight>
313.32954

$$$$

  SciTegic11272012012D

 28 31  0  0  0  0            999 V2000
    2.1455    0.2461    0.0000 C   0  0
    2.1445   -0.4139    0.0000 C   0  0
    2.8583   -0.8275    0.0000 N   0  0
    2.8570   -1.6525    0.0000 C   0  0
    2.1419   -2.0639    0.0000 C   0  0
    1.4281   -1.6502    0.0000 C   0  0
    1.4293   -0.8252    0.0000 C   0  0
    0.7144   -0.4125    0.0000 C   0  0
    0.7144    0.4125    0.0000 C   0  0
    0.0000    0.8250    0.0000 C   0  0
   -0.7144    0.4125    0.0000 C   0  0
   -1.4290    0.8250    0.0000 C   0  0
   -2.1434    0.4125    0.0000 C   0  0
   -2.8591    0.8237    0.0000 N   0  0
   -2.1434   -0.4125    0.0000 N   0  0
   -1.4290   -0.8250    0.0000 C   0  0
   -0.7144   -0.4125    0.0000 C   0  0
    0.0000   -0.8250    0.0000 C   0  0
    2.1388   -2.8893    0.0000 C   0  0
    2.7094   -3.2212    0.0000 O   0  0
    1.4227   -3.2999    0.0000 N   0  0
    1.4198   -4.1253    0.0000 C   0  0
    0.8355   -4.6793    0.0000 C   0  0
    1.4180   -5.2637    0.0000 C   0  0
    2.0023   -4.6812    0.0000 C   0  0
    0.9474   -3.0233    0.0000 H   0  0
   -3.3350    0.5481    0.0000 H   0  0
   -2.8601    1.3737    0.0000 H   0  0
  1  2  1  0
  2  3  2  0
  3  4  1  0
  4  5  2  0
  5  6  1  0
  5 19  1  0
  6  7  2  0
  7  2  1  0
  7  8  1  0
  8  9  2  0
  9 10  1  0
 10 11  2  0
 11 12  1  0
 12 13  2  0
 13 14  1  0
 13 15  1  0
 14 27  1  0
 14 28  1  0
 15 16  2  0
 16 17  1  0
 17 11  1  0
 17 18  2  0
 18  8  1  0
 19 20  2  0
 19 21  1  0
 21 22  1  0
 21 26  1  0
 22 23  1  0
 23 24  1  0
 24 25  1  0
 25 22  1  0
M  END
> <CMPD_CHEMBLID>
CHEMBL3689752

> <STANDARD_TYPE>
Ki

> <RELATION>
=

> <STANDARD_VALUE>
24

> <STANDARD_UNITS>
nM

> <Molecular_Weight>
332.399

$$$$

  SciTegic11272012012D

 18 20  0  0  0  0            999 V2000
    1.2861   -0.7425    0.0000 Br  0  0
    0.7145   -0.4125    0.0000 C   0  0
    0.7145    0.4125    0.0000 C   0  0
    0.0000    0.8250    0.0000 C   0  0
   -0.7145    0.4125    0.0000 C   0  0
   -1.4290    0.8250    0.0000 C   0  0
   -2.1435    0.4125    0.0000 C   0  0
   -2.8592    0.8238    0.0000 N   0  0
   -3.5735    0.4100    0.0000 C   0  0
   -3.5723   -0.2500    0.0000 O   0  0
   -4.2892    0.8213    0.0000 C   0  0
   -5.0707    0.7961    0.0000 C   0  0
   -4.6582    1.5106    0.0000 C   0  0
   -2.1435   -0.4125    0.0000 N   0  0
   -1.4290   -0.8250    0.0000 C   0  0
   -0.7145   -0.4125    0.0000 C   0  0
    0.0000   -0.8250    0.0000 C   0  0
   -2.8602    1.3738    0.0000 H   0  0
  1  2  1  0
  2  3  2  0
  3  4  1  0
  4  5  2  0
  5  6  1  0
  6  7  2  0
  7  8  1  0
  7 14  1  0
  8  9  1  0
  8 18  1  0
  9 10  2  0
  9 11  1  0
 11 12  1  0
 12 13  1  0
 13 11  1  0
 14 15  2  0
 15 16  1  0
 16  5  1  0
 16 17  2  0
 17  2  1  0
M  END
> <CMPD_CHEMBLID>
CHEMBL3689693

> <STANDARD_TYPE>
Ki

> <RELATION>
=

> <STANDARD_VALUE>
24.9

> <STANDARD_UNITS>
nM

> <Molecular_Weight>
291.14324

$$$$

  SciTegic11272012012D

 44 49  0  0  0  0            999 V2000
   -5.0129    0.7395    0.0000 C   0  0
   -5.2160    0.1116    0.0000 C   0  0
   -4.7301   -0.5552    0.0000 C   0  0
   -5.2178   -1.2119    0.0000 N   0  0
   -5.9991   -0.9695    0.0000 C   0  0
   -6.0002   -0.1445    0.0000 N   0  0
   -4.9629   -1.9969    0.0000 C   0  0
   -4.1560   -2.1686    0.0000 C   0  0
   -3.9011   -2.9533    0.0000 C   0  0
   -3.0941   -3.1267    0.0000 N   0  0
   -2.8402   -3.9122    0.0000 C   0  0
   -3.2828   -4.4018    0.0000 O   0  0
   -2.0332   -4.0856    0.0000 C   0  0
   -1.7784   -4.8702    0.0000 C   0  0
   -0.9714   -5.0419    0.0000 C   0  0
   -0.4193   -4.4289    0.0000 C   0  0
    0.2263   -4.5662    0.0000 C   0  0
   -0.6741   -3.6442    0.0000 C   0  0
   -0.1229   -3.0297    0.0000 C   0  0
   -0.3789   -2.2450    0.0000 C   0  0
    0.1713   -1.6316    0.0000 N   0  0
    0.9918   -1.7178    0.0000 C   0  0
    1.3273   -0.9641    0.0000 N   0  0
    0.7144   -0.4125    0.0000 C   0  0
    0.7144    0.4125    0.0000 C   0  0
    1.4285    0.8267    0.0000 N   0  0
    1.4273    1.6521    0.0000 C   0  0
    1.8374    2.3178    0.0000 C   0  0
    1.0124    2.3149    0.0000 C   0  0
    0.0000    0.8250    0.0000 N   0  0
   -0.7144    0.4125    0.0000 C   0  0
   -0.7144   -0.4125    0.0000 N   0  0
    0.0000   -0.8250    0.0000 C   0  0
   -1.4810   -3.4726    0.0000 C   0  0
   -4.4533   -3.5663    0.0000 C   0  0
   -5.2603   -3.3946    0.0000 C   0  0
   -5.5150   -2.6100    0.0000 C   0  0
   -5.8127   -4.0080    0.0000 C   0  0
   -5.6092   -4.6358    0.0000 F   0  0
   -6.4582   -3.8704    0.0000 F   0  0
   -6.2547   -4.4981    0.0000 F   0  0
    1.9053    0.5525    0.0000 H   0  0
    1.8653   -0.8497    0.0000 H   0  0
   -2.7252   -2.7186    0.0000 H   0  0
  1  2  1  0
  2  3  2  0
  3  4  1  0
  4  5  1  0
  4  7  1  0
  5  6  2  0
  6  2  1  0
  7  8  2  0
  8  9  1  0
  9 10  1  0
  9 35  2  0
 10 11  1  0
 10 44  1  0
 11 12  2  0
 11 13  1  0
 13 14  2  0
 14 15  1  0
 15 16  2  0
 16 17  1  0
 16 18  1  0
 18 19  1  0
 18 34  2  0
 19 20  2  0
 20 21  1  0
 21 22  1  0
 22 23  1  0
 23 24  1  0
 23 43  1  0
 24 25  2  0
 25 26  1  0
 25 30  1  0
 26 27  1  0
 26 42  1  0
 27 28  1  0
 28 29  1  0
 29 27  1  0
 30 31  2  0
 31 32  1  0
 32 33  2  0
 33 21  1  0
 33 24  1  0
 34 13  1  0
 35 36  1  0
 36 37  2  0
 36 38  1  0
 37  7  1  0
 38 39  1  0
 38 40  1  0
 38 41  1  0
M  END
> <CMPD_CHEMBLID>
CHEMBL1077317

> <STANDARD_TYPE>
IC50

> <RELATION>
=

> <STANDARD_VALUE>
25

> <STANDARD_UNITS>
nM

> <Molecular_Weight>
560.57289

$$$$

  SciTegic11272012012D

 29 32  0  0  0  0            999 V2000
    0.8551   -1.9812    0.0000 C   0  0
    1.4273   -1.6522    0.0000 C   0  0
    1.4285   -0.8267    0.0000 N   0  0
    0.7145   -0.4125    0.0000 C   0  0
    0.7145    0.4125    0.0000 N   0  0
    0.0000    0.8250    0.0000 C   0  0
    0.0017    1.6504    0.0000 N   0  0
    0.7171    2.0622    0.0000 C   0  0
    0.7958    2.8764    0.0000 C   0  0
    1.6034    3.0451    0.0000 N   0  0
    1.8739    3.6471    0.0000 C   0  0
    2.0134    2.3292    0.0000 C   0  0
    1.4592    1.7180    0.0000 N   0  0
   -0.7145    0.4125    0.0000 C   0  0
   -1.4986    0.6674    0.0000 C   0  0
   -1.9836    0.0000    0.0000 C   0  0
   -1.4986   -0.6674    0.0000 N   0  0
   -0.7145   -0.4125    0.0000 C   0  0
    0.0000   -0.8250    0.0000 N   0  0
    2.1413   -2.0664    0.0000 C   0  0
    2.1414   -2.8914    0.0000 N   0  0
    2.8558   -3.3039    0.0000 C   0  0
    3.5703   -2.8914    0.0000 C   0  0
    4.1419   -3.2214    0.0000 F   0  0
    3.5703   -2.0664    0.0000 C   0  0
    2.8559   -1.6539    0.0000 N   0  0
   -1.6685   -1.1905    0.0000 H   0  0
   -0.4742    1.9263    0.0000 H   0  0
    1.9053   -0.5525    0.0000 H   0  0
  1  2  1  0
  2  3  1  0
  2 20  1  0
  3  4  1  0
  3 29  1  0
  4  5  2  0
  5  6  1  0
  6  7  1  0
  6 14  2  0
  7  8  1  0
  7 28  1  0
  8  9  2  0
  9 10  1  0
 10 11  1  0
 10 12  1  0
 12 13  2  0
 13  8  1  0
 14 15  1  0
 15 16  2  0
 16 17  1  0
 17 18  1  0
 17 27  1  0
 18 14  1  0
 18 19  2  0
 19  4  1  0
 20 21  2  0
 21 22  1  0
 22 23  2  0
 23 24  1  0
 23 25  1  0
 25 26  2  0
 26 20  1  0
M  END
> <CMPD_CHEMBLID>
CHEMBL3116050

> <STANDARD_TYPE>
IC50

> <RELATION>
=

> <STANDARD_VALUE>
25

> <STANDARD_UNITS>
nM

> <Molecular_Weight>
353.35694

$$$$

  SciTegic11272012012D

 41 44  0  0  0  0            999 V2000
    1.4276   -1.4867    0.0000 C   0  0
    1.4285   -0.8267    0.0000 C   0  0
    0.7144   -0.4125    0.0000 N   0  0
    0.7144    0.4125    0.0000 C   0  0
    0.0000    0.8250    0.0000 C   0  0
   -0.7144    0.4125    0.0000 N   0  0
   -1.4302    0.8237    0.0000 C   0  0
   -2.1444    0.4100    0.0000 C   0  0
   -2.1416   -0.4150    0.0000 C   0  0
   -2.8546   -0.8300    0.0000 C   0  0
   -3.5706   -0.4200    0.0000 C   0  0
   -4.2848   -0.8337    0.0000 N   0  0
   -5.0006   -0.4225    0.0000 C   0  0
   -5.0017    0.2375    0.0000 O   0  0
   -5.7148   -0.8362    0.0000 N   0  0
   -6.4305   -0.4249    0.0000 C   0  0
   -7.1450   -0.8374    0.0000 C   0  0
   -7.8595   -0.4249    0.0000 C   0  0
   -7.8595    0.4001    0.0000 C   0  0
   -8.5735    0.8143    0.0000 O   0  0
   -8.5723    1.6398    0.0000 C   0  0
   -9.2853    2.0548    0.0000 C   0  0
   -9.2825    2.8798    0.0000 C   0  0
   -9.9951    3.2964    0.0000 N   0  0
   -9.9918    3.9564    0.0000 C   0  0
   -8.5666    3.2898    0.0000 N   0  0
   -7.8535    2.8748    0.0000 C   0  0
   -7.8564    2.0499    0.0000 N   0  0
   -7.1450    0.8126    0.0000 C   0  0
   -6.4305    0.4001    0.0000 C   0  0
   -3.5734    0.4050    0.0000 C   0  0
   -2.8604    0.8200    0.0000 C   0  0
   -2.8633    1.6454    0.0000 C   0  0
   -3.4358    1.9738    0.0000 F   0  0
   -2.2927    1.9772    0.0000 F   0  0
   -2.8653    2.3054    0.0000 F   0  0
   -0.7144   -0.4125    0.0000 C   0  0
    0.0000   -0.8250    0.0000 C   0  0
  -10.4728    3.0239    0.0000 H   0  0
   -5.7138   -1.3862    0.0000 H   0  0
   -4.2839   -1.3837    0.0000 H   0  0
  1  2  1  0
  2  3  1  0
  3  4  1  0
  4  5  1  0
  5  6  1  0
  6  7  1  0
  6 37  1  0
  7  8  1  0
  8  9  2  0
  9 10  1  0
 10 11  2  0
 11 12  1  0
 11 31  1  0
 12 13  1  0
 12 41  1  0
 13 14  2  0
 13 15  1  0
 15 16  1  0
 15 40  1  0
 16 17  2  0
 17 18  1  0
 18 19  2  0
 19 20  1  0
 19 29  1  0
 20 21  1  0
 21 22  2  0
 22 23  1  0
 23 24  1  0
 23 26  2  0
 24 25  1  0
 24 39  1  0
 26 27  1  0
 27 28  2  0
 28 21  1  0
 29 30  2  0
 30 16  1  0
 31 32  2  0
 32  8  1  0
 32 33  1  0
 33 34  1  0
 33 35  1  0
 33 36  1  0
 37 38  1  0
 38  3  1  0
M  END
> <CMPD_CHEMBLID>
CHEMBL574738

> <STANDARD_TYPE>
Ki

> <RELATION>
=

> <STANDARD_VALUE>
25.12

> <STANDARD_UNITS>
nM

> <Molecular_Weight>
529.55731

$$$$

  SciTegic11272012012D

 37 41  0  0  0  0            999 V2000
    2.9848   -5.6951    0.0000 C   0  0
    3.5580   -5.3680    0.0000 C   0  0
    4.2704   -5.7841    0.0000 C   0  0
    4.9870   -5.3752    0.0000 C   0  0
    4.9911   -4.5502    0.0000 C   0  0
    4.2787   -4.1341    0.0000 C   0  0
    4.2812   -3.3086    0.0000 N   0  0
    3.5679   -2.8933    0.0000 C   0  0
    2.9952   -3.2214    0.0000 O   0  0
    3.5703   -2.0678    0.0000 N   0  0
    2.8570   -1.6525    0.0000 C   0  0
    2.8583   -0.8275    0.0000 C   0  0
    2.1445   -0.4139    0.0000 C   0  0
    1.4293   -0.8252    0.0000 C   0  0
    1.4281   -1.6502    0.0000 C   0  0
    2.1419   -2.0639    0.0000 C   0  0
    0.7145   -0.4125    0.0000 C   0  0
    0.7145    0.4125    0.0000 C   0  0
    0.0000    0.8250    0.0000 N   0  0
   -0.7145    0.4125    0.0000 C   0  0
   -1.4986    0.6674    0.0000 C   0  0
   -1.9836    0.0000    0.0000 C   0  0
   -1.4986   -0.6674    0.0000 N   0  0
   -0.7145   -0.4125    0.0000 N   0  0
    0.0000   -0.8250    0.0000 C   0  0
    0.0017   -1.6504    0.0000 N   0  0
   -1.7536    1.4524    0.0000 C   0  0
   -1.3189    2.1423    0.0000 C   0  0
   -1.8545    2.7698    0.0000 N   0  0
   -2.6168    2.4542    0.0000 N   0  0
   -3.1794    2.7992    0.0000 C   0  0
   -2.5523    1.6317    0.0000 C   0  0
    3.5622   -4.5430    0.0000 C   0  0
    0.4784   -1.9248    0.0000 H   0  0
   -0.4742   -1.9263    0.0000 H   0  0
    4.0476   -1.7944    0.0000 H   0  0
    4.7584   -3.0352    0.0000 H   0  0
  1  2  1  0
  2  3  2  0
  3  4  1  0
  4  5  2  0
  5  6  1  0
  6  7  1  0
  6 33  2  0
  7  8  1  0
  7 37  1  0
  8  9  2  0
  8 10  1  0
 10 11  1  0
 10 36  1  0
 11 12  2  0
 12 13  1  0
 13 14  2  0
 14 15  1  0
 14 17  1  0
 15 16  2  0
 16 11  1  0
 17 18  1  0
 18 19  2  0
 19 20  1  0
 20 21  2  0
 21 22  1  0
 21 27  1  0
 22 23  2  0
 23 24  1  0
 24 20  1  0
 24 25  1  0
 25 17  2  0
 25 26  1  0
 26 34  1  0
 26 35  1  0
 27 28  1  0
 28 29  2  0
 29 30  1  0
 30 31  1  0
 30 32  1  0
 32 27  2  0
 33  2  1  0
M  END
> <CMPD_CHEMBLID>
CHEMBL508928

> <STANDARD_TYPE>
Ki

> <RELATION>
=

> <STANDARD_VALUE>
25.12

> <STANDARD_UNITS>
nM

> <Molecular_Weight>
438.48448

$$$$

  SciTegic11272012012D

 43 47  0  0  0  0            999 V2000
    3.8145   -0.4136    0.0000 C   0  0
    3.5441   -1.0156    0.0000 C   0  0
    4.0272   -1.6849    0.0000 C   0  0
    3.7568   -2.2870    0.0000 O   0  0
    4.8485   -1.6017    0.0000 N   0  0
    5.2348   -2.1368    0.0000 C   0  0
    5.1189   -0.9996    0.0000 C   0  0
    2.7242   -1.0988    0.0000 N   0  0
    2.1731   -0.4848    0.0000 C   0  0
    1.4293   -0.8252    0.0000 C   0  0
    1.5039   -1.6398    0.0000 C   0  0
    2.3106   -1.8126    0.0000 N   0  0
    0.7145   -0.4125    0.0000 C   0  0
    0.7145    0.4125    0.0000 C   0  0
    0.0000    0.8250    0.0000 N   0  0
   -0.7145    0.4125    0.0000 C   0  0
   -1.4285    0.8267    0.0000 N   0  0
   -0.7145   -0.4125    0.0000 C   0  0
   -1.3273   -0.9642    0.0000 C   0  0
   -0.9918   -1.7178    0.0000 C   0  0
   -0.1713   -1.6316    0.0000 S   0  0
    0.0000   -0.8250    0.0000 C   0  0
   -2.1347   -0.7924    0.0000 C   0  0
   -2.4465   -0.0316    0.0000 C   0  0
   -3.2641    0.0788    0.0000 C   0  0
   -3.7684   -0.5741    0.0000 C   0  0
   -4.5867   -0.4654    0.0000 N   0  0
   -5.0904   -1.1194    0.0000 C   0  0
   -4.8387   -1.7295    0.0000 O   0  0
   -5.9086   -1.0107    0.0000 N   0  0
   -6.4123   -1.6646    0.0000 C   0  0
   -7.2304   -1.5572    0.0000 C   0  0
   -7.7325   -2.2118    0.0000 C   0  0
   -7.4165   -2.9739    0.0000 C   0  0
   -7.8182   -3.4976    0.0000 C   0  0
   -6.5986   -3.0815    0.0000 C   0  0
   -6.0965   -2.4268    0.0000 C   0  0
   -3.4552   -1.3373    0.0000 C   0  0
   -2.6375   -1.4477    0.0000 C   0  0
   -6.1184   -0.5022    0.0000 H   0  0
   -4.7964    0.0430    0.0000 H   0  0
   -1.4277    1.3767    0.0000 H   0  0
   -1.9053    0.5525    0.0000 H   0  0
  1  2  1  0
  2  3  1  0
  2  8  1  0
  3  4  2  0
  3  5  1  0
  5  6  1  0
  5  7  1  0
  8  9  1  0
  9 10  2  0
 10 11  1  0
 10 13  1  0
 11 12  2  0
 12  8  1  0
 13 14  2  0
 14 15  1  0
 15 16  2  0
 16 17  1  0
 16 18  1  0
 17 42  1  0
 17 43  1  0
 18 19  1  0
 19 20  2  0
 19 23  1  0
 20 21  1  0
 21 22  1  0
 22 13  1  0
 22 18  2  0
 23 24  2  0
 24 25  1  0
 25 26  2  0
 26 27  1  0
 26 38  1  0
 27 28  1  0
 27 41  1  0
 28 29  2  0
 28 30  1  0
 30 31  1  0
 30 40  1  0
 31 32  2  0
 32 33  1  0
 33 34  2  0
 34 35  1  0
 34 36  1  0
 36 37  2  0
 37 31  1  0
 38 39  2  0
 39 23  1  0
M  END
> <CMPD_CHEMBLID>
CHEMBL2001485

> <STANDARD_TYPE>
Ki

> <RELATION>
=

> <STANDARD_VALUE>
25.12

> <STANDARD_UNITS>
nM

> <Molecular_Weight>
539.65126

$$$$

  SciTegic11272012012D

 28 31  0  0  0  0            999 V2000
    4.1431   -1.7398    0.0000 C   0  0
    3.5704   -2.0679    0.0000 S   0  0
    3.5684   -2.7279    0.0000 O   0  0
    2.8570   -1.6525    0.0000 C   0  0
    2.8584   -0.8275    0.0000 C   0  0
    2.1446   -0.4139    0.0000 C   0  0
    2.1456    0.2461    0.0000 C   0  0
    1.4293   -0.8252    0.0000 C   0  0
    1.4281   -1.6503    0.0000 C   0  0
    2.1419   -2.0639    0.0000 N   0  0
    0.7145   -0.4125    0.0000 C   0  0
    0.7145    0.4125    0.0000 C   0  0
    0.0000    0.8250    0.0000 C   0  0
   -0.7145    0.4125    0.0000 C   0  0
   -1.4290    0.8250    0.0000 C   0  0
   -2.1435    0.4125    0.0000 C   0  0
   -2.8592    0.8238    0.0000 N   0  0
   -3.5735    0.4100    0.0000 C   0  0
   -3.5723   -0.2500    0.0000 O   0  0
   -4.2892    0.8213    0.0000 C   0  0
   -4.6582    1.5106    0.0000 C   0  0
   -5.0707    0.7961    0.0000 C   0  0
   -5.6369    0.4571    0.0000 F   0  0
   -2.1435   -0.4125    0.0000 N   0  0
   -1.4290   -0.8250    0.0000 C   0  0
   -0.7145   -0.4125    0.0000 C   0  0
    0.0000   -0.8250    0.0000 C   0  0
   -2.8602    1.3738    0.0000 H   0  0
  1  2  1  0
  2  3  2  0
  2  4  1  0
  4  5  2  0
  5  6  1  0
  6  7  1  0
  6  8  2  0
  8  9  1  0
  8 11  1  0
  9 10  2  0
 10  4  1  0
 11 12  2  0
 12 13  1  0
 13 14  2  0
 14 15  1  0
 15 16  2  0
 16 17  1  0
 16 24  1  0
 17 18  1  0
 17 28  1  0
 18 19  2  0
 18 20  1  0
 20 21  1  0
 21 22  1  0
 22 20  1  0
 22 23  1  0
 24 25  2  0
 25 26  1  0
 26 14  1  0
 26 27  2  0
 27 11  1  0
M  END
> <CMPD_CHEMBLID>
CHEMBL3689724

> <STANDARD_TYPE>
Ki

> <RELATION>
=

> <STANDARD_VALUE>
25.3

> <STANDARD_UNITS>
nM

> <Molecular_Weight>
383.43922

$$$$

  SciTegic11272012012D

 29 32  0  0  0  0            999 V2000
    2.1455    0.2461    0.0000 C   0  0
    2.1445   -0.4139    0.0000 C   0  0
    2.8583   -0.8275    0.0000 C   0  0
    2.8570   -1.6525    0.0000 C   0  0
    2.1419   -2.0639    0.0000 C   0  0
    2.1408   -2.7239    0.0000 F   0  0
    1.4281   -1.6502    0.0000 C   0  0
    1.4293   -0.8252    0.0000 C   0  0
    0.7144   -0.4125    0.0000 C   0  0
    0.7144    0.4125    0.0000 C   0  0
    0.0000    0.8250    0.0000 C   0  0
   -0.7144    0.4125    0.0000 C   0  0
   -1.4290    0.8250    0.0000 C   0  0
   -2.1434    0.4125    0.0000 C   0  0
   -2.8591    0.8237    0.0000 N   0  0
   -3.5734    0.4100    0.0000 C   0  0
   -3.5722   -0.2500    0.0000 O   0  0
   -4.2891    0.8213    0.0000 C   0  0
   -5.0036    0.4088    0.0000 C   0  0
   -5.7181    0.8213    0.0000 C   0  0
   -5.7181    1.6463    0.0000 C   0  0
   -6.2897    1.9762    0.0000 F   0  0
   -5.0037    2.0588    0.0000 C   0  0
   -4.2892    1.6463    0.0000 C   0  0
   -2.1434   -0.4125    0.0000 N   0  0
   -1.4290   -0.8250    0.0000 C   0  0
   -0.7144   -0.4125    0.0000 C   0  0
    0.0000   -0.8250    0.0000 C   0  0
   -2.8601    1.3737    0.0000 H   0  0
  1  2  1  0
  2  3  2  0
  3  4  1  0
  4  5  2  0
  5  6  1  0
  5  7  1  0
  7  8  2  0
  8  2  1  0
  8  9  1  0
  9 10  2  0
 10 11  1  0
 11 12  2  0
 12 13  1  0
 13 14  2  0
 14 15  1  0
 14 25  1  0
 15 16  1  0
 15 29  1  0
 16 17  2  0
 16 18  1  0
 18 19  2  0
 19 20  1  0
 20 21  2  0
 21 22  1  0
 21 23  1  0
 23 24  2  0
 24 18  1  0
 25 26  2  0
 26 27  1  0
 27 12  1  0
 27 28  2  0
 28  9  1  0
M  END
> <CMPD_CHEMBLID>
CHEMBL3685006

> <STANDARD_TYPE>
Ki

> <RELATION>
=

> <STANDARD_VALUE>
26

> <STANDARD_UNITS>
nM

> <Molecular_Weight>
374.38275

$$$$

  SciTegic11272012012D

 43 48  0  0  0  0            999 V2000
   -2.4959   -2.6711    0.0000 C   0  0
   -2.2921   -3.2988    0.0000 C   0  0
   -2.8443   -3.9118    0.0000 C   0  0
   -2.5895   -4.6965    0.0000 C   0  0
   -1.7825   -4.8682    0.0000 C   0  0
   -1.2304   -4.2552    0.0000 C   0  0
   -1.4851   -3.4706    0.0000 C   0  0
   -0.9327   -2.8572    0.0000 C   0  0
   -0.3802   -2.2439    0.0000 C   0  0
    0.1713   -1.6316    0.0000 C   0  0
    0.9918   -1.7178    0.0000 C   0  0
    1.3273   -0.9642    0.0000 N   0  0
    0.7145   -0.4125    0.0000 C   0  0
    0.7145    0.4125    0.0000 C   0  0
    0.0000    0.8250    0.0000 C   0  0
   -0.7145    0.4125    0.0000 C   0  0
   -0.7145   -0.4125    0.0000 C   0  0
    0.0000   -0.8250    0.0000 N   0  0
   -1.5260   -5.6528    0.0000 C   0  0
   -1.9668   -6.1440    0.0000 O   0  0
   -0.7184   -5.8234    0.0000 N   0  0
   -0.4618   -6.6080    0.0000 C   0  0
    0.3452   -6.7797    0.0000 C   0  0
    0.5999   -7.5644    0.0000 C   0  0
    0.0478   -8.1774    0.0000 C   0  0
   -0.7591   -8.0058    0.0000 C   0  0
   -1.0139   -7.2211    0.0000 C   0  0
   -1.3116   -8.6191    0.0000 C   0  0
   -1.1082   -9.2470    0.0000 F   0  0
   -1.9571   -8.4816    0.0000 F   0  0
   -1.7535   -9.1093    0.0000 F   0  0
    1.4073   -7.7362    0.0000 N   0  0
    2.0097   -7.1827    0.0000 C   0  0
    2.7234   -7.5965    0.0000 N   0  0
    2.5504   -8.4031    0.0000 C   0  0
    3.0995   -9.0177    0.0000 C   0  0
    2.8419   -9.8019    0.0000 N   0  0
    3.3271  -10.4605    0.0000 C   0  0
    2.8386  -11.1253    0.0000 C   0  0
    2.0554  -10.8663    0.0000 C   0  0
    2.0597  -10.0413    0.0000 C   0  0
    1.7298   -8.4879    0.0000 C   0  0
   -0.3510   -5.4141    0.0000 H   0  0
  1  2  1  0
  2  3  2  0
  3  4  1  0
  4  5  2  0
  5  6  1  0
  5 19  1  0
  6  7  2  0
  7  2  1  0
  7  8  1  0
  8  9  3  0
  9 10  1  0
 10 11  2  0
 11 12  1  0
 12 13  2  0
 13 14  1  0
 14 15  2  0
 15 16  1  0
 16 17  2  0
 17 18  1  0
 18 10  1  0
 18 13  1  0
 19 20  2  0
 19 21  1  0
 21 22  1  0
 21 43  1  0
 22 23  2  0
 23 24  1  0
 24 25  2  0
 24 32  1  0
 25 26  1  0
 26 27  2  0
 26 28  1  0
 27 22  1  0
 28 29  1  0
 28 30  1  0
 28 31  1  0
 32 33  1  0
 33 34  2  0
 34 35  1  0
 35 36  1  0
 35 42  2  0
 36 37  1  0
 37 38  1  0
 38 39  1  0
 39 40  1  0
 40 41  1  0
 41 37  1  0
 42 32  1  0
M  END
> <CMPD_CHEMBLID>
CHEMBL1171038

> <STANDARD_TYPE>
IC50

> <RELATION>
=

> <STANDARD_VALUE>
26

> <STANDARD_UNITS>
nM

> <Molecular_Weight>
568.59159

$$$$

  SciTegic11272012012D

 37 41  0  0  0  0            999 V2000
   -2.4959   -2.6711    0.0000 C   0  0
   -2.2921   -3.2988    0.0000 C   0  0
   -2.8442   -3.9118    0.0000 C   0  0
   -2.5895   -4.6964    0.0000 C   0  0
   -1.7825   -4.8682    0.0000 C   0  0
   -1.2304   -4.2551    0.0000 C   0  0
   -1.4851   -3.4705    0.0000 C   0  0
   -0.9327   -2.8571    0.0000 C   0  0
   -0.3802   -2.2438    0.0000 C   0  0
    0.1713   -1.6316    0.0000 C   0  0
    0.9918   -1.7178    0.0000 C   0  0
    1.3273   -0.9641    0.0000 N   0  0
    0.7144   -0.4125    0.0000 C   0  0
    0.7144    0.4125    0.0000 C   0  0
    0.0000    0.8250    0.0000 C   0  0
   -0.7144    0.4125    0.0000 C   0  0
   -0.7144   -0.4125    0.0000 C   0  0
    0.0000   -0.8250    0.0000 N   0  0
   -1.5260   -5.6527    0.0000 C   0  0
   -1.9668   -6.1439    0.0000 O   0  0
   -0.7184   -5.8233    0.0000 N   0  0
   -0.4618   -6.6079    0.0000 C   0  0
    0.3452   -6.7796    0.0000 C   0  0
    0.5999   -7.5643    0.0000 C   0  0
    0.0478   -8.1773    0.0000 C   0  0
   -0.7591   -8.0056    0.0000 C   0  0
   -1.0139   -7.2210    0.0000 C   0  0
   -1.3116   -8.6190    0.0000 C   0  0
   -1.1081   -9.2468    0.0000 F   0  0
   -1.9571   -8.4814    0.0000 F   0  0
   -1.7535   -9.1092    0.0000 F   0  0
    1.4073   -7.7361    0.0000 N   0  0
    2.0096   -7.1826    0.0000 C   0  0
    2.7234   -7.5964    0.0000 C   0  0
    2.5504   -8.4030    0.0000 N   0  0
    1.7298   -8.4878    0.0000 C   0  0
   -0.3510   -5.4140    0.0000 H   0  0
  1  2  1  0
  2  3  2  0
  3  4  1  0
  4  5  2  0
  5  6  1  0
  5 19  1  0
  6  7  2  0
  7  2  1  0
  7  8  1  0
  8  9  3  0
  9 10  1  0
 10 11  2  0
 11 12  1  0
 12 13  2  0
 13 14  1  0
 14 15  2  0
 15 16  1  0
 16 17  2  0
 17 18  1  0
 18 10  1  0
 18 13  1  0
 19 20  2  0
 19 21  1  0
 21 22  1  0
 21 37  1  0
 22 23  2  0
 23 24  1  0
 24 25  2  0
 24 32  1  0
 25 26  1  0
 26 27  2  0
 26 28  1  0
 27 22  1  0
 28 29  1  0
 28 30  1  0
 28 31  1  0
 32 33  1  0
 33 34  2  0
 34 35  1  0
 35 36  2  0
 36 32  1  0
M  END
> <CMPD_CHEMBLID>
CHEMBL1172586

> <STANDARD_TYPE>
IC50

> <RELATION>
=

> <STANDARD_VALUE>
26

> <STANDARD_UNITS>
nM

> <Molecular_Weight>
485.45993

$$$$

  SciTegic11272012012D

 28 31  0  0  0  0            999 V2000
    0.0477   -4.5998    0.0000 C   0  0
   -0.5860   -4.4152    0.0000 O   0  0
   -0.7828   -3.6136    0.0000 C   0  0
   -0.1861   -3.0438    0.0000 C   0  0
   -0.3810   -2.2450    0.0000 C   0  0
   -1.1730   -2.0103    0.0000 C   0  0
   -1.7697   -2.5801    0.0000 C   0  0
   -1.5746   -3.3817    0.0000 C   0  0
   -2.1728   -3.9506    0.0000 N   0  0
    0.1713   -1.6316    0.0000 C   0  0
    0.9918   -1.7179    0.0000 N   0  0
    1.3273   -0.9642    0.0000 N   0  0
    2.1348   -0.7925    0.0000 C   0  0
    2.7754   -1.2969    0.0000 C   0  0
    3.4553   -0.8296    0.0000 C   0  0
    3.2211   -0.0386    0.0000 C   0  0
    2.3964   -0.0169    0.0000 C   0  0
    0.7145   -0.4125    0.0000 C   0  0
    0.7145    0.4125    0.0000 N   0  0
    0.0000    0.8250    0.0000 C   0  0
   -0.7145    0.4125    0.0000 N   0  0
   -0.7145   -0.4125    0.0000 C   0  0
   -1.4302   -0.8238    0.0000 N   0  0
    0.0000   -0.8250    0.0000 C   0  0
   -1.9062   -0.5481    0.0000 H   0  0
   -1.4312   -1.3738    0.0000 H   0  0
   -2.7004   -3.7952    0.0000 H   0  0
   -2.0436   -4.4852    0.0000 H   0  0
  1  2  1  0
  2  3  1  0
  3  4  2  0
  4  5  1  0
  5  6  2  0
  5 10  1  0
  6  7  1  0
  7  8  2  0
  8  3  1  0
  8  9  1  0
  9 27  1  0
  9 28  1  0
 10 11  2  0
 11 12  1  0
 12 13  1  0
 12 18  1  0
 13 14  1  0
 14 15  1  0
 15 16  1  0
 16 17  1  0
 17 13  1  0
 18 19  2  0
 19 20  1  0
 20 21  2  0
 21 22  1  0
 22 23  1  0
 22 24  2  0
 23 25  1  0
 23 26  1  0
 24 10  1  0
 24 18  1  0
M  END
> <CMPD_CHEMBLID>
CHEMBL1241581

> <STANDARD_TYPE>
IC50

> <RELATION>
=

> <STANDARD_VALUE>
26

> <STANDARD_UNITS>
nM

> <Molecular_Weight>
324.3803

$$$$

  SciTegic11272012012D

 24 26  0  0  0  0            999 V2000
   -0.1742   -2.8725    0.0000 C   0  0
   -0.3790   -2.2450    0.0000 C   0  0
   -1.0247   -2.1088    0.0000 C   0  0
    0.1713   -1.6316    0.0000 N   0  0
    0.9918   -1.7179    0.0000 N   0  0
    1.3273   -0.9642    0.0000 C   0  0
    2.1348   -0.7925    0.0000 C   0  0
    2.7291   -1.3607    0.0000 C   0  0
    3.5209   -1.1288    0.0000 C   0  0
    4.1190   -1.6977    0.0000 O   0  0
    3.7159   -0.3272    0.0000 C   0  0
    3.1193    0.2426    0.0000 C   0  0
    3.2754    0.8839    0.0000 Br  0  0
    2.3275    0.0107    0.0000 C   0  0
    0.7145   -0.4125    0.0000 C   0  0
    0.7145    0.4125    0.0000 C   0  0
    1.4285    0.8267    0.0000 N   0  0
    0.0000    0.8250    0.0000 N   0  0
   -0.7145    0.4125    0.0000 C   0  0
   -0.7145   -0.4125    0.0000 N   0  0
    0.0000   -0.8250    0.0000 C   0  0
    1.4277    1.3767    0.0000 H   0  0
    1.9053    0.5525    0.0000 H   0  0
    4.6467   -1.5423    0.0000 H   0  0
  1  2  1  0
  2  3  1  0
  2  4  1  0
  4  5  1  0
  5  6  2  0
  6  7  1  0
  6 15  1  0
  7  8  2  0
  8  9  1  0
  9 10  1  0
  9 11  2  0
 10 24  1  0
 11 12  1  0
 12 13  1  0
 12 14  2  0
 14  7  1  0
 15 16  2  0
 16 17  1  0
 16 18  1  0
 17 22  1  0
 17 23  1  0
 18 19  2  0
 19 20  1  0
 20 21  2  0
 21  4  1  0
 21 15  1  0
M  END
> <CMPD_CHEMBLID>
CHEMBL1242285

> <STANDARD_TYPE>
IC50

> <RELATION>
=

> <STANDARD_VALUE>
26

> <STANDARD_UNITS>
nM

> <Molecular_Weight>
348.19786

$$$$

  SciTegic11272012012D

 37 41  0  0  0  0            999 V2000
    1.5704   -0.3584    0.0000 C   0  0
    0.9269   -0.2115    0.0000 N   0  0
    0.7433    0.5928    0.0000 C   0  0
    0.0000    0.9507    0.0000 C   0  0
   -0.7433    0.5927    0.0000 C   0  0
   -0.9269   -0.2116    0.0000 N   0  0
   -1.7323   -0.3971    0.0000 C   0  0
   -1.9745   -1.1862    0.0000 C   0  0
   -2.7782   -1.3726    0.0000 C   0  0
   -3.0186   -2.1618    0.0000 C   0  0
   -2.4554   -2.7647    0.0000 C   0  0
   -1.6518   -2.5783    0.0000 C   0  0
   -1.4113   -1.7891    0.0000 C   0  0
   -2.6944   -3.5548    0.0000 C   0  0
   -3.3371   -3.7050    0.0000 O   0  0
   -2.1300   -4.1571    0.0000 N   0  0
   -2.3690   -4.9472    0.0000 C   0  0
   -1.8057   -5.5501    0.0000 C   0  0
   -2.0462   -6.3393    0.0000 C   0  0
   -2.8498   -6.5256    0.0000 C   0  0
   -3.0422   -7.1570    0.0000 C   0  0
   -3.4131   -5.9228    0.0000 C   0  0
   -3.1726   -5.1336    0.0000 C   0  0
   -4.2172   -6.1093    0.0000 N   0  0
   -4.5282   -6.8658    0.0000 C   0  0
   -5.3501   -6.7934    0.0000 C   0  0
   -5.5352   -5.9894    0.0000 C   0  0
   -4.8277   -5.5650    0.0000 N   0  0
   -5.8920   -7.4160    0.0000 C   0  0
   -5.6835   -8.2114    0.0000 C   0  0
   -6.2705   -8.7912    0.0000 C   0  0
   -7.0660   -8.5728    0.0000 C   0  0
   -7.2747   -7.7747    0.0000 N   0  0
   -6.6878   -7.1949    0.0000 C   0  0
   -0.4125   -0.8566    0.0000 C   0  0
    0.4125   -0.8566    0.0000 C   0  0
   -1.5944   -4.0320    0.0000 H   0  0
  1  2  1  0
  2  3  1  0
  3  4  1  0
  4  5  1  0
  5  6  1  0
  6  7  1  0
  6 35  1  0
  7  8  1  0
  8  9  2  0
  9 10  1  0
 10 11  2  0
 11 12  1  0
 11 14  1  0
 12 13  2  0
 13  8  1  0
 14 15  2  0
 14 16  1  0
 16 17  1  0
 16 37  1  0
 17 18  2  0
 18 19  1  0
 19 20  2  0
 20 21  1  0
 20 22  1  0
 22 23  2  0
 22 24  1  0
 23 17  1  0
 24 25  1  0
 25 26  2  0
 26 27  1  0
 26 29  1  0
 27 28  2  0
 28 24  1  0
 29 30  2  0
 30 31  1  0
 31 32  2  0
 32 33  1  0
 33 34  2  0
 34 29  1  0
 35 36  1  0
 36  2  1  0
M  END
> <CMPD_CHEMBLID>
CHEMBL3597615

> <STANDARD_TYPE>
IC50

> <RELATION>
=

> <STANDARD_VALUE>
26.58

> <STANDARD_UNITS>
nM

> <Molecular_Weight>
480.60398

$$$$

  SciTegic11272012012D

 41 45  0  0  0  0            999 V2000
    1.2861   -0.7425    0.0000 C   0  0
    0.7144   -0.4125    0.0000 C   0  0
    0.7144    0.4125    0.0000 C   0  0
    0.0000    0.8250    0.0000 C   0  0
   -0.7144    0.4125    0.0000 C   0  0
   -0.7144   -0.4125    0.0000 C   0  0
   -1.4290   -0.8250    0.0000 N   0  0
   -1.4290   -1.6500    0.0000 N   0  0
   -0.7144   -2.0625    0.0000 C   0  0
   -0.7127   -2.8879    0.0000 N   0  0
    0.0027   -3.2997    0.0000 C   0  0
    0.0056   -4.1247    0.0000 C   0  0
    0.7215   -4.5347    0.0000 C   0  0
    1.4345   -4.1197    0.0000 C   0  0
    1.4317   -3.2947    0.0000 C   0  0
    0.7158   -2.8847    0.0000 C   0  0
    2.1508   -4.5300    0.0000 S   0  0
    2.7211   -4.1978    0.0000 O   0  0
    2.7237   -4.8577    0.0000 O   0  0
    2.1542   -5.3554    0.0000 N   0  0
    2.8705   -5.7656    0.0000 C   0  0
    2.8739   -6.5911    0.0000 C   0  0
    3.5902   -7.0014    0.0000 N   0  0
    3.6705   -7.8154    0.0000 C   0  0
    4.4784   -7.9825    0.0000 C   0  0
    4.8870   -7.2657    0.0000 C   0  0
    4.3315   -6.6557    0.0000 C   0  0
    0.0000   -1.6500    0.0000 N   0  0
    0.0000   -0.8250    0.0000 C   0  0
    0.0000    1.6504    0.0000 C   0  0
    0.7138    2.0641    0.0000 C   0  0
    1.2859    1.7350    0.0000 Cl  0  0
    0.7125    2.8891    0.0000 C   0  0
   -0.0026    3.3005    0.0000 C   0  0
   -0.7164    2.8868    0.0000 C   0  0
   -1.4311    3.2999    0.0000 O   0  0
   -0.7151    2.0618    0.0000 C   0  0
   -1.2862    1.7310    0.0000 Cl  0  0
   -1.4312    3.8499    0.0000 H   0  0
    1.6789   -5.6322    0.0000 H   0  0
   -1.1886   -3.1638    0.0000 H   0  0
  1  2  1  0
  2  3  2  0
  3  4  1  0
  4  5  2  0
  4 30  1  0
  5  6  1  0
  6  7  2  0
  7  8  1  0
  8  9  2  0
  9 10  1  0
  9 28  1  0
 10 11  1  0
 10 41  1  0
 11 12  2  0
 12 13  1  0
 13 14  2  0
 14 15  1  0
 14 17  1  0
 15 16  2  0
 16 11  1  0
 17 18  2  0
 17 19  2  0
 17 20  1  0
 20 21  1  0
 20 40  1  0
 21 22  1  0
 22 23  1  0
 23 24  1  0
 24 25  1  0
 25 26  1  0
 26 27  1  0
 27 23  1  0
 28 29  2  0
 29  2  1  0
 29  6  1  0
 30 31  2  0
 31 32  1  0
 31 33  1  0
 33 34  2  0
 34 35  1  0
 35 36  1  0
 35 37  2  0
 36 39  1  0
 37 30  1  0
 37 38  1  0
M  END
> <CMPD_CHEMBLID>
CHEMBL400303

> <STANDARD_TYPE>
Ki

> <RELATION>
=

> <STANDARD_VALUE>
27

> <STANDARD_UNITS>
nM

> <Molecular_Weight>
573.49404

$$$$

  SciTegic11272012012D

 24 26  0  0  0  0            999 V2000
    2.1455    0.2461    0.0000 C   0  0
    2.1445   -0.4139    0.0000 C   0  0
    2.8583   -0.8275    0.0000 C   0  0
    2.8570   -1.6525    0.0000 C   0  0
    2.1419   -2.0639    0.0000 C   0  0
    2.1408   -2.7239    0.0000 F   0  0
    1.4281   -1.6502    0.0000 C   0  0
    1.4293   -0.8252    0.0000 C   0  0
    0.7144   -0.4125    0.0000 C   0  0
    0.7144    0.4125    0.0000 C   0  0
    0.0000    0.8250    0.0000 C   0  0
   -0.7144    0.4125    0.0000 C   0  0
   -1.4290    0.8250    0.0000 C   0  0
   -2.1434    0.4125    0.0000 C   0  0
   -2.8591    0.8237    0.0000 N   0  0
   -3.5734    0.4100    0.0000 S   0  0
   -4.1457    0.7388    0.0000 O   0  0
   -3.5722   -0.2500    0.0000 O   0  0
   -4.1444    0.0789    0.0000 C   0  0
   -2.1434   -0.4125    0.0000 N   0  0
   -1.4290   -0.8250    0.0000 C   0  0
   -0.7144   -0.4125    0.0000 C   0  0
    0.0000   -0.8250    0.0000 C   0  0
   -2.8601    1.3737    0.0000 H   0  0
  1  2  1  0
  2  3  2  0
  3  4  1  0
  4  5  2  0
  5  6  1  0
  5  7  1  0
  7  8  2  0
  8  2  1  0
  8  9  1  0
  9 10  2  0
 10 11  1  0
 11 12  2  0
 12 13  1  0
 13 14  2  0
 14 15  1  0
 14 20  1  0
 15 16  1  0
 15 24  1  0
 16 17  2  0
 16 18  2  0
 16 19  1  0
 20 21  2  0
 21 22  1  0
 22 12  1  0
 22 23  2  0
 23  9  1  0
M  END
> <CMPD_CHEMBLID>
CHEMBL3685070

> <STANDARD_TYPE>
Ki

> <RELATION>
=

> <STANDARD_VALUE>
27

> <STANDARD_UNITS>
nM

> <Molecular_Weight>
330.3766

$$$$

  SciTegic11272012012D

 24 27  0  0  0  0            999 V2000
    0.8551   -1.9812    0.0000 O   0  0
    1.4273   -1.6521    0.0000 C   0  0
    1.4285   -0.8267    0.0000 N   0  0
    0.7144   -0.4125    0.0000 C   0  0
    0.7144    0.4125    0.0000 C   0  0
    0.0000    0.8250    0.0000 C   0  0
    0.0000    1.6500    0.0000 C   0  0
   -0.7145    2.0625    0.0000 C   0  0
   -1.4290    1.6500    0.0000 C   0  0
   -2.1447    2.0612    0.0000 O   0  0
   -2.8590    1.6475    0.0000 C   0  0
   -3.5749    2.0575    0.0000 C   0  0
   -4.2879    1.6425    0.0000 C   0  0
   -4.2851    0.8175    0.0000 C   0  0
   -3.5692    0.4075    0.0000 C   0  0
   -2.8561    0.8225    0.0000 C   0  0
   -1.4290    0.8250    0.0000 C   0  0
   -0.7144    0.4125    0.0000 C   0  0
   -0.7144   -0.4125    0.0000 C   0  0
    0.0000   -0.8250    0.0000 N   0  0
    2.1413   -2.0663    0.0000 C   0  0
    2.5103   -2.7557    0.0000 C   0  0
    2.9228   -2.0412    0.0000 C   0  0
    1.9053   -0.5525    0.0000 H   0  0
  1  2  2  0
  2  3  1  0
  2 21  1  0
  3  4  1  0
  3 24  1  0
  4  5  2  0
  5  6  1  0
  6  7  2  0
  7  8  1  0
  8  9  2  0
  9 10  1  0
  9 17  1  0
 10 11  1  0
 11 12  1  0
 12 13  1  0
 13 14  1  0
 14 15  1  0
 15 16  1  0
 16 11  1  0
 17 18  2  0
 18  6  1  0
 18 19  1  0
 19 20  2  0
 20  4  1  0
 21 22  1  0
 22 23  1  0
 23 21  1  0
M  END
> <CMPD_CHEMBLID>
CHEMBL3685082

> <STANDARD_TYPE>
Ki

> <RELATION>
=

> <STANDARD_VALUE>
27

> <STANDARD_UNITS>
nM

> <Molecular_Weight>
310.39018

$$$$

  SciTegic11272012012D

 34 38  0  0  0  0            999 V2000
    2.1455    0.2461    0.0000 F   0  0
    2.1445   -0.4139    0.0000 C   0  0
    2.8583   -0.8275    0.0000 C   0  0
    2.8570   -1.6525    0.0000 C   0  0
    2.1419   -2.0639    0.0000 C   0  0
    2.1388   -2.8893    0.0000 N   0  0
    1.4227   -3.2999    0.0000 C   0  0
    0.8523   -2.9680    0.0000 O   0  0
    1.4198   -4.1253    0.0000 C   0  0
    0.7046   -4.5367    0.0000 C   0  0
    0.7033   -5.3617    0.0000 C   0  0
    1.4171   -5.7754    0.0000 O   0  0
    2.1322   -5.3640    0.0000 C   0  0
    2.1336   -4.5390    0.0000 C   0  0
    1.4281   -1.6502    0.0000 C   0  0
    1.4293   -0.8252    0.0000 C   0  0
    0.7144   -0.4125    0.0000 C   0  0
    0.7144    0.4125    0.0000 C   0  0
    0.0000    0.8250    0.0000 C   0  0
   -0.7144    0.4125    0.0000 C   0  0
   -1.4290    0.8250    0.0000 C   0  0
   -2.1434    0.4125    0.0000 C   0  0
   -2.8591    0.8237    0.0000 N   0  0
   -3.5734    0.4100    0.0000 C   0  0
   -3.5722   -0.2500    0.0000 O   0  0
   -4.2891    0.8213    0.0000 C   0  0
   -5.0706    0.7961    0.0000 C   0  0
   -4.6581    1.5106    0.0000 C   0  0
   -2.1434   -0.4125    0.0000 N   0  0
   -1.4290   -0.8250    0.0000 C   0  0
   -0.7144   -0.4125    0.0000 C   0  0
    0.0000   -0.8250    0.0000 C   0  0
   -2.8601    1.3737    0.0000 H   0  0
    2.6143   -3.1659    0.0000 H   0  0
  1  2  1  0
  2  3  2  0
  3  4  1  0
  4  5  2  0
  5  6  1  0
  5 15  1  0
  6  7  1  0
  6 34  1  0
  7  8  2  0
  7  9  1  0
  9 10  1  0
 10 11  1  0
 11 12  1  0
 12 13  1  0
 13 14  1  0
 14  9  1  0
 15 16  2  0
 16  2  1  0
 16 17  1  0
 17 18  2  0
 18 19  1  0
 19 20  2  0
 20 21  1  0
 21 22  2  0
 22 23  1  0
 22 29  1  0
 23 24  1  0
 23 33  1  0
 24 25  2  0
 24 26  1  0
 26 27  1  0
 27 28  1  0
 28 26  1  0
 29 30  2  0
 30 31  1  0
 31 20  1  0
 31 32  2  0
 32 17  1  0
M  END
> <CMPD_CHEMBLID>
CHEMBL3685196

> <STANDARD_TYPE>
Ki

> <RELATION>
=

> <STANDARD_VALUE>
27

> <STANDARD_UNITS>
nM

> <Molecular_Weight>
433.47476

$$$$

  SciTegic11272012012D

 36 40  0  0  0  0            999 V2000
   -2.4959   -2.6711    0.0000 C   0  0
   -2.2921   -3.2988    0.0000 C   0  0
   -2.8443   -3.9118    0.0000 C   0  0
   -2.5895   -4.6965    0.0000 C   0  0
   -1.7825   -4.8682    0.0000 C   0  0
   -1.2304   -4.2552    0.0000 C   0  0
   -1.4851   -3.4706    0.0000 C   0  0
   -0.9327   -2.8572    0.0000 C   0  0
   -0.3802   -2.2439    0.0000 C   0  0
    0.1713   -1.6316    0.0000 N   0  0
    0.9918   -1.7178    0.0000 C   0  0
    1.3273   -0.9642    0.0000 N   0  0
    0.7145   -0.4125    0.0000 C   0  0
    0.7145    0.4125    0.0000 C   0  0
    1.4285    0.8267    0.0000 N   0  0
    1.4273    1.6522    0.0000 C   0  0
    1.8375    2.3178    0.0000 C   0  0
    1.0125    2.3149    0.0000 C   0  0
    0.0000    0.8250    0.0000 C   0  0
   -0.7145    0.4125    0.0000 C   0  0
   -0.7145   -0.4125    0.0000 C   0  0
    0.0000   -0.8250    0.0000 C   0  0
   -1.5260   -5.6528    0.0000 C   0  0
   -1.9668   -6.1440    0.0000 O   0  0
   -0.7184   -5.8234    0.0000 N   0  0
   -0.4618   -6.6080    0.0000 C   0  0
    0.3191   -6.8517    0.0000 C   0  0
    0.3189   -7.6767    0.0000 C   0  0
   -0.4658   -7.9315    0.0000 O   0  0
   -0.9506   -7.2640    0.0000 N   0  0
    0.9855   -8.1612    0.0000 C   0  0
    1.5886   -7.8932    0.0000 F   0  0
    0.9162   -8.8176    0.0000 F   0  0
    1.5192   -8.5495    0.0000 F   0  0
   -0.3510   -5.4141    0.0000 H   0  0
    1.9053    0.5525    0.0000 H   0  0
  1  2  1  0
  2  3  2  0
  3  4  1  0
  4  5  2  0
  5  6  1  0
  5 23  1  0
  6  7  2  0
  7  2  1  0
  7  8  1  0
  8  9  3  0
  9 10  1  0
 10 11  1  0
 11 12  2  0
 12 13  1  0
 13 14  2  0
 14 15  1  0
 14 19  1  0
 15 16  1  0
 15 36  1  0
 16 17  1  0
 17 18  1  0
 18 16  1  0
 19 20  2  0
 20 21  1  0
 21 22  2  0
 22 10  1  0
 22 13  1  0
 23 24  2  0
 23 25  1  0
 25 26  1  0
 25 35  1  0
 26 27  1  0
 27 28  2  0
 28 29  1  0
 28 31  1  0
 29 30  1  0
 30 26  2  0
 31 32  1  0
 31 33  1  0
 31 34  1  0
M  END
> <CMPD_CHEMBLID>
CHEMBL1171280

> <STANDARD_TYPE>
IC50

> <RELATION>
=

> <STANDARD_VALUE>
28

> <STANDARD_UNITS>
nM

> <Molecular_Weight>
465.42723

$$$$

  SciTegic11272012012D

 26 28  0  0  0  0            999 V2000
    2.5619   -3.0003    0.0000 C   0  0
    2.2308   -2.4294    0.0000 O   0  0
    1.4053   -2.4306    0.0000 C   0  0
    1.0763   -3.0028    0.0000 O   0  0
    0.9918   -1.7178    0.0000 C   0  0
    1.3273   -0.9642    0.0000 C   0  0
    0.7145   -0.4125    0.0000 C   0  0
    0.7145    0.4125    0.0000 C   0  0
    0.0000    0.8250    0.0000 C   0  0
   -0.0017    1.6505    0.0000 N   0  0
   -0.7172    2.0622    0.0000 C   0  0
   -1.2882    1.7312    0.0000 O   0  0
   -0.7189    2.8876    0.0000 C   0  0
   -1.4334    3.3002    0.0000 C   0  0
   -2.0049    2.9702    0.0000 C   0  0
   -1.4334    4.1252    0.0000 C   0  0
   -0.7189    4.5377    0.0000 C   0  0
   -0.0044    4.1252    0.0000 C   0  0
   -0.0044    3.3002    0.0000 C   0  0
    0.5672    2.9703    0.0000 Cl  0  0
   -0.7145    0.4125    0.0000 C   0  0
   -0.7145   -0.4125    0.0000 N   0  0
    0.0000   -0.8250    0.0000 C   0  0
    0.1713   -1.6316    0.0000 N   0  0
   -0.1967   -2.0403    0.0000 H   0  0
    0.4741    1.9263    0.0000 H   0  0
  1  2  1  0
  2  3  1  0
  3  4  2  0
  3  5  1  0
  5  6  2  0
  6  7  1  0
  7  8  2  0
  8  9  1  0
  9 10  1  0
  9 21  2  0
 10 11  1  0
 10 26  1  0
 11 12  2  0
 11 13  1  0
 13 14  2  0
 14 15  1  0
 14 16  1  0
 16 17  2  0
 17 18  1  0
 18 19  2  0
 19 13  1  0
 19 20  1  0
 21 22  1  0
 22 23  2  0
 23  7  1  0
 23 24  1  0
 24  5  1  0
 24 25  1  0
M  END
> <CMPD_CHEMBLID>
CHEMBL3347638

> <STANDARD_TYPE>
IC50

> <RELATION>
=

> <STANDARD_VALUE>
28

> <STANDARD_UNITS>
nM

> <Molecular_Weight>
343.76436

$$$$

  SciTegic11272012012D

 40 43  0  0  0  0            999 V2000
    3.4313   -0.4904    0.0000 C   0  0
    2.8601   -0.8213    0.0000 N   0  0
    2.1444   -0.4100    0.0000 N   0  0
    1.4302   -0.8237    0.0000 N   0  0
    0.7144   -0.4125    0.0000 C   0  0
    0.7144    0.4125    0.0000 C   0  0
    0.0000    0.8250    0.0000 C   0  0
   -0.7144    0.4125    0.0000 C   0  0
   -0.7144   -0.4125    0.0000 C   0  0
    0.0000   -0.8250    0.0000 C   0  0
    0.0000   -1.6504    0.0000 C   0  0
   -0.5713   -1.9808    0.0000 F   0  0
    0.5717   -1.9803    0.0000 F   0  0
    0.0003   -2.3104    0.0000 F   0  0
   -1.4302    0.8237    0.0000 C   0  0
   -1.4313    1.4837    0.0000 O   0  0
   -2.1444    0.4100    0.0000 N   0  0
   -2.8601    0.8213    0.0000 C   0  0
   -3.5746    0.4088    0.0000 C   0  0
   -4.2892    0.8213    0.0000 C   0  0
   -4.2892    1.6463    0.0000 C   0  0
   -4.8608    1.9762    0.0000 C   0  0
   -3.5747    2.0587    0.0000 C   0  0
   -3.5731    2.8842    0.0000 N   0  0
   -2.8576    3.2960    0.0000 C   0  0
   -2.8547    4.1210    0.0000 N   0  0
   -2.1388    4.5310    0.0000 C   0  0
   -1.4258    4.1161    0.0000 C   0  0
   -1.4286    3.2911    0.0000 C   0  0
   -2.1445    2.8810    0.0000 N   0  0
   -0.7152    2.8759    0.0000 C   0  0
    0.0014    3.2848    0.0000 C   0  0
    0.7138    2.8687    0.0000 C   0  0
    0.7096    2.0437    0.0000 C   0  0
   -0.0069    1.6348    0.0000 N   0  0
   -0.7193    2.0509    0.0000 C   0  0
   -2.8602    1.6463    0.0000 C   0  0
   -4.0489    3.1600    0.0000 H   0  0
   -2.1435   -0.1400    0.0000 H   0  0
    2.8611   -1.3713    0.0000 H   0  0
  1  2  1  0
  2  3  1  0
  2 40  1  0
  3  4  2  0
  4  5  1  0
  5  6  2  0
  6  7  1  0
  7  8  2  0
  8  9  1  0
  8 15  1  0
  9 10  2  0
 10  5  1  0
 10 11  1  0
 11 12  1  0
 11 13  1  0
 11 14  1  0
 15 16  2  0
 15 17  1  0
 17 18  1  0
 17 39  1  0
 18 19  2  0
 19 20  1  0
 20 21  2  0
 21 22  1  0
 21 23  1  0
 23 24  1  0
 23 37  2  0
 24 25  1  0
 24 38  1  0
 25 26  2  0
 26 27  1  0
 27 28  2  0
 28 29  1  0
 29 30  2  0
 29 31  1  0
 30 25  1  0
 31 32  2  0
 32 33  1  0
 33 34  2  0
 34 35  1  0
 35 36  2  0
 36 31  1  0
 37 18  1  0
M  END
> <CMPD_CHEMBLID>
CHEMBL230065

> <STANDARD_TYPE>
IC50

> <RELATION>
=

> <STANDARD_VALUE>
28

> <STANDARD_UNITS>
nM

> <Molecular_Weight>
506.48245

$$$$

  SciTegic11272012012D

 43 46  0  0  0  0            999 V2000
    2.1404   -2.7264    0.0000 C   0  0
    2.1413   -2.0663    0.0000 C   0  0
    1.4273   -1.6521    0.0000 C   0  0
    0.8551   -1.9812    0.0000 O   0  0
    1.4285   -0.8267    0.0000 N   0  0
    0.7144   -0.4125    0.0000 C   0  0
    0.7144    0.4125    0.0000 C   0  0
    0.0000    0.8250    0.0000 C   0  0
   -0.7144    0.4125    0.0000 C   0  0
   -0.7144   -0.4125    0.0000 C   0  0
    0.0000   -0.8250    0.0000 N   0  0
   -1.4293    0.8252    0.0000 C   0  0
   -2.1442    1.2379    0.0000 C   0  0
   -2.8591    1.6507    0.0000 C   0  0
   -3.5736    1.2382    0.0000 C   0  0
   -4.2880    1.6507    0.0000 C   0  0
   -4.2880    2.4757    0.0000 C   0  0
   -3.5736    2.8882    0.0000 C   0  0
   -2.8591    2.4757    0.0000 C   0  0
   -2.2875    2.8057    0.0000 C   0  0
   -5.0037    1.2394    0.0000 C   0  0
   -5.0049    0.5794    0.0000 O   0  0
   -5.7180    1.6531    0.0000 N   0  0
   -6.4337    1.2419    0.0000 C   0  0
   -7.1482    1.6544    0.0000 C   0  0
   -7.8627    1.2419    0.0000 C   0  0
   -7.8627    0.4169    0.0000 C   0  0
   -8.5785    0.0057    0.0000 C   0  0
   -9.2927    0.4194    0.0000 N   0  0
  -10.0086    0.0094    0.0000 C   0  0
  -10.7217    0.4244    0.0000 C   0  0
  -10.7188    1.2494    0.0000 N   0  0
  -11.2892    1.5814    0.0000 C   0  0
  -10.0029    1.6594    0.0000 C   0  0
   -9.2899    1.2444    0.0000 C   0  0
   -7.1482    0.0043    0.0000 C   0  0
   -6.4338    0.4168    0.0000 C   0  0
   -7.1483   -0.8211    0.0000 C   0  0
   -7.7196   -1.1514    0.0000 F   0  0
   -6.5766   -1.1509    0.0000 F   0  0
   -7.1480   -1.4811    0.0000 F   0  0
   -5.7170    2.2031    0.0000 H   0  0
    1.9053   -0.5525    0.0000 H   0  0
  1  2  1  0
  2  3  1  0
  3  4  2  0
  3  5  1  0
  5  6  1  0
  5 43  1  0
  6  7  2  0
  7  8  1  0
  8  9  2  0
  9 10  1  0
  9 12  1  0
 10 11  2  0
 11  6  1  0
 12 13  3  0
 13 14  1  0
 14 15  2  0
 15 16  1  0
 16 17  2  0
 16 21  1  0
 17 18  1  0
 18 19  2  0
 19 14  1  0
 19 20  1  0
 21 22  2  0
 21 23  1  0
 23 24  1  0
 23 42  1  0
 24 25  2  0
 25 26  1  0
 26 27  2  0
 27 28  1  0
 27 36  1  0
 28 29  1  0
 29 30  1  0
 30 31  1  0
 31 32  1  0
 32 33  1  0
 32 34  1  0
 34 35  1  0
 35 29  1  0
 36 37  2  0
 36 38  1  0
 37 24  1  0
 38 39  1  0
 38 40  1  0
 38 41  1  0
M  END
> <CMPD_CHEMBLID>
CHEMBL1784628

> <STANDARD_TYPE>
IC50

> <RELATION>
=

> <STANDARD_VALUE>
28.6

> <STANDARD_UNITS>
nM

> <Molecular_Weight>
563.61329

$$$$

  SciTegic11272012012D

 39 42  0  0  0  0            999 V2000
    1.2861   -0.7425    0.0000 C   0  0
    0.7144   -0.4125    0.0000 N   0  0
    0.7144    0.4125    0.0000 C   0  0
    0.0000    0.8250    0.0000 C   0  0
   -0.7144    0.4125    0.0000 N   0  0
   -1.4302    0.8237    0.0000 C   0  0
   -2.1444    0.4100    0.0000 C   0  0
   -2.1416   -0.4150    0.0000 C   0  0
   -2.8546   -0.8300    0.0000 C   0  0
   -3.5706   -0.4200    0.0000 C   0  0
   -4.2849   -0.8337    0.0000 N   0  0
   -5.0006   -0.4225    0.0000 C   0  0
   -5.0017    0.2375    0.0000 O   0  0
   -5.7149   -0.8362    0.0000 C   0  0
   -6.4307   -0.4261    0.0000 C   0  0
   -7.1438   -0.8411    0.0000 C   0  0
   -7.1409   -1.6661    0.0000 C   0  0
   -7.7114   -1.9980    0.0000 C   0  0
   -6.4251   -2.0761    0.0000 C   0  0
   -5.7120   -1.6612    0.0000 C   0  0
   -6.4223   -2.9016    0.0000 C   0  0
   -6.4194   -3.7270    0.0000 C   0  0
   -6.4166   -4.5524    0.0000 C   0  0
   -7.0824   -5.0276    0.0000 C   0  0
   -6.8247   -5.8113    0.0000 N   0  0
   -5.9997   -5.8085    0.0000 C   0  0
   -5.5117   -6.4725    0.0000 N   0  0
   -5.7475   -5.0230    0.0000 S   0  0
   -3.5734    0.4050    0.0000 C   0  0
   -2.8604    0.8200    0.0000 C   0  0
   -2.8633    1.6454    0.0000 C   0  0
   -3.4358    1.9738    0.0000 F   0  0
   -2.2927    1.9772    0.0000 F   0  0
   -2.8653    2.3054    0.0000 F   0  0
   -0.7144   -0.4125    0.0000 C   0  0
    0.0000   -0.8250    0.0000 C   0  0
   -4.9650   -6.4123    0.0000 H   0  0
   -5.7328   -6.9761    0.0000 H   0  0
   -4.2839   -1.3837    0.0000 H   0  0
  1  2  1  0
  2  3  1  0
  3  4  1  0
  4  5  1  0
  5  6  1  0
  5 35  1  0
  6  7  1  0
  7  8  2  0
  8  9  1  0
  9 10  2  0
 10 11  1  0
 10 29  1  0
 11 12  1  0
 11 39  1  0
 12 13  2  0
 12 14  1  0
 14 15  2  0
 15 16  1  0
 16 17  2  0
 17 18  1  0
 17 19  1  0
 19 20  2  0
 19 21  1  0
 20 14  1  0
 21 22  3  0
 22 23  1  0
 23 24  2  0
 24 25  1  0
 25 26  2  0
 26 27  1  0
 26 28  1  0
 27 37  1  0
 27 38  1  0
 28 23  1  0
 29 30  2  0
 30  7  1  0
 30 31  1  0
 31 32  1  0
 31 33  1  0
 31 34  1  0
 35 36  1  0
 36  2  1  0
M  END
> <CMPD_CHEMBLID>
CHEMBL1784640

> <STANDARD_TYPE>
IC50

> <RELATION>
=

> <STANDARD_VALUE>
29

> <STANDARD_UNITS>
nM

> <Molecular_Weight>
513.57775

$$$$

  SciTegic11272012012D

 41 45  0  0  0  0            999 V2000
   -6.3002  -11.1081    0.0000 C   0  0
   -6.2311  -10.4518    0.0000 N   0  0
   -6.8985   -9.9667    0.0000 C   0  0
   -6.8121   -9.1462    0.0000 C   0  0
   -6.0583   -8.8108    0.0000 N   0  0
   -5.9702   -7.9900    0.0000 C   0  0
   -5.2155   -7.6555    0.0000 C   0  0
   -4.5499   -8.1429    0.0000 C   0  0
   -3.7950   -7.8101    0.0000 C   0  0
   -3.7057   -6.9899    0.0000 C   0  0
   -2.9510   -6.6554    0.0000 N   0  0
   -2.8629   -5.8347    0.0000 C   0  0
   -3.3961   -5.4457    0.0000 O   0  0
   -2.1083   -5.5002    0.0000 N   0  0
   -2.0203   -4.6809    0.0000 C   0  0
   -1.3057   -4.2685    0.0000 C   0  0
   -1.4851   -3.4705    0.0000 C   0  0
   -0.9327   -2.8571    0.0000 C   0  0
   -0.3802   -2.2438    0.0000 C   0  0
    0.1713   -1.6316    0.0000 C   0  0
    0.9918   -1.7178    0.0000 C   0  0
    1.3273   -0.9641    0.0000 N   0  0
    0.7144   -0.4125    0.0000 C   0  0
    0.7144    0.4125    0.0000 C   0  0
    0.0000    0.8250    0.0000 C   0  0
   -0.7144    0.4125    0.0000 C   0  0
   -0.7144   -0.4125    0.0000 C   0  0
    0.0000   -0.8250    0.0000 N   0  0
   -2.2975   -3.3751    0.0000 N   0  0
   -2.6240   -2.8015    0.0000 C   0  0
   -2.6332   -4.1287    0.0000 N   0  0
   -4.3714   -6.5026    0.0000 C   0  0
   -5.1263   -6.8353    0.0000 C   0  0
   -5.7923   -6.3477    0.0000 C   0  0
   -5.7213   -5.6916    0.0000 F   0  0
   -6.3961   -6.6141    0.0000 F   0  0
   -6.3250   -5.9580    0.0000 F   0  0
   -5.3910   -9.2959    0.0000 C   0  0
   -5.4774  -10.1164    0.0000 C   0  0
   -1.6639   -5.8243    0.0000 H   0  0
   -2.5067   -6.9796    0.0000 H   0  0
  1  2  1  0
  2  3  1  0
  3  4  1  0
  4  5  1  0
  5  6  1  0
  5 38  1  0
  6  7  1  0
  7  8  2  0
  8  9  1  0
  9 10  2  0
 10 11  1  0
 10 32  1  0
 11 12  1  0
 11 41  1  0
 12 13  2  0
 12 14  1  0
 14 15  1  0
 14 40  1  0
 15 16  1  0
 16 17  2  0
 17 18  1  0
 17 29  1  0
 18 19  3  0
 19 20  1  0
 20 21  2  0
 21 22  1  0
 22 23  2  0
 23 24  1  0
 24 25  2  0
 25 26  1  0
 26 27  2  0
 27 28  1  0
 28 20  1  0
 28 23  1  0
 29 30  1  0
 29 31  1  0
 31 15  2  0
 32 33  2  0
 33  7  1  0
 33 34  1  0
 34 35  1  0
 34 36  1  0
 34 37  1  0
 38 39  1  0
 39  2  1  0
M  END
> <CMPD_CHEMBLID>
CHEMBL2324927

> <STANDARD_TYPE>
IC50

> <RELATION>
=

> <STANDARD_VALUE>
30

> <STANDARD_UNITS>
nM

> <Molecular_Weight>
536.55149

$$$$

  SciTegic11272012012D

 37 41  0  0  0  0            999 V2000
   -2.4959   -2.6711    0.0000 C   0  0
   -2.2921   -3.2988    0.0000 C   0  0
   -2.8442   -3.9118    0.0000 C   0  0
   -2.5895   -4.6964    0.0000 C   0  0
   -1.7825   -4.8682    0.0000 C   0  0
   -1.2304   -4.2551    0.0000 C   0  0
   -1.4851   -3.4705    0.0000 C   0  0
   -0.9327   -2.8571    0.0000 C   0  0
   -0.3802   -2.2438    0.0000 C   0  0
    0.1713   -1.6316    0.0000 N   0  0
    0.9918   -1.7178    0.0000 C   0  0
    1.3273   -0.9641    0.0000 N   0  0
    0.7144   -0.4125    0.0000 C   0  0
    0.7144    0.4125    0.0000 C   0  0
    1.4285    0.8267    0.0000 N   0  0
    1.4273    1.6521    0.0000 C   0  0
    1.8374    2.3178    0.0000 C   0  0
    1.0124    2.3149    0.0000 C   0  0
    0.0000    0.8250    0.0000 N   0  0
   -0.7144    0.4125    0.0000 C   0  0
   -0.7144   -0.4125    0.0000 N   0  0
    0.0000   -0.8250    0.0000 C   0  0
   -1.5260   -5.6527    0.0000 C   0  0
   -1.9668   -6.1439    0.0000 O   0  0
   -0.7184   -5.8233    0.0000 N   0  0
   -0.4618   -6.6079    0.0000 C   0  0
    0.3452   -6.7796    0.0000 C   0  0
    0.5999   -7.5643    0.0000 C   0  0
    0.0478   -8.1773    0.0000 C   0  0
   -0.7591   -8.0056    0.0000 C   0  0
   -1.0139   -7.2210    0.0000 N   0  0
    1.4073   -7.7361    0.0000 C   0  0
    1.8494   -7.2460    0.0000 F   0  0
    1.6110   -8.3638    0.0000 F   0  0
    2.0528   -7.8737    0.0000 F   0  0
   -0.3510   -5.4140    0.0000 H   0  0
    1.9053    0.5525    0.0000 H   0  0
  1  2  1  0
  2  3  2  0
  3  4  1  0
  4  5  2  0
  5  6  1  0
  5 23  1  0
  6  7  2  0
  7  2  1  0
  7  8  1  0
  8  9  3  0
  9 10  1  0
 10 11  1  0
 11 12  2  0
 12 13  1  0
 13 14  2  0
 14 15  1  0
 14 19  1  0
 15 16  1  0
 15 37  1  0
 16 17  1  0
 17 18  1  0
 18 16  1  0
 19 20  2  0
 20 21  1  0
 21 22  2  0
 22 10  1  0
 22 13  1  0
 23 24  2  0
 23 25  1  0
 25 26  1  0
 25 36  1  0
 26 27  2  0
 27 28  1  0
 28 29  2  0
 28 32  1  0
 29 30  1  0
 30 31  2  0
 31 26  1  0
 32 33  1  0
 32 34  1  0
 32 35  1  0
M  END
> <CMPD_CHEMBLID>
CHEMBL1169875

> <STANDARD_TYPE>
IC50

> <RELATION>
=

> <STANDARD_VALUE>
30

> <STANDARD_UNITS>
nM

> <Molecular_Weight>
477.44123

$$$$

  SciTegic11272012012D

 39 45  0  0  0  0            999 V2000
    4.9975   -2.8959    0.0000 C   0  0
    5.0002   -2.0709    0.0000 C   0  0
    4.2870   -1.6562    0.0000 C   0  0
    3.5712   -2.0664    0.0000 N   0  0
    3.5686   -2.8914    0.0000 C   0  0
    4.2818   -3.3061    0.0000 C   0  0
    2.8570   -1.6525    0.0000 C   0  0
    2.8583   -0.8275    0.0000 C   0  0
    2.1445   -0.4139    0.0000 C   0  0
    1.4293   -0.8252    0.0000 N   0  0
    1.4281   -1.6502    0.0000 C   0  0
    2.1419   -2.0639    0.0000 C   0  0
    0.7145   -0.4125    0.0000 C   0  0
    0.7145    0.4125    0.0000 C   0  0
    0.0000    0.8250    0.0000 C   0  0
   -0.7145    0.4125    0.0000 C   0  0
   -1.4986    0.6674    0.0000 N   0  0
   -1.9836    0.0000    0.0000 C   0  0
   -1.4986   -0.6674    0.0000 N   0  0
   -0.7145   -0.4125    0.0000 C   0  0
    0.0000   -0.8250    0.0000 C   0  0
   -2.8090    0.0000    0.0000 C   0  0
   -3.2264   -0.7041    0.0000 N   0  0
   -4.0285   -0.5112    0.0000 N   0  0
   -4.0927    0.3109    0.0000 C   0  0
   -4.7471    0.8133    0.0000 C   0  0
   -4.6390    1.6312    0.0000 C   0  0
   -3.8767    1.9467    0.0000 C   0  0
   -3.7670    2.7648    0.0000 O   0  0
   -3.0038    3.0793    0.0000 C   0  0
   -2.8929    3.8969    0.0000 C   0  0
   -2.1295    4.2097    0.0000 C   0  0
   -1.4769    3.7049    0.0000 C   0  0
   -1.5877    2.8873    0.0000 C   0  0
   -2.3511    2.5746    0.0000 C   0  0
   -3.2224    1.4442    0.0000 C   0  0
   -3.3304    0.6263    0.0000 C   0  0
   -3.0122   -1.2107    0.0000 H   0  0
   -1.6685    1.1905    0.0000 H   0  0
  1  2  1  0
  2  3  1  0
  3  4  1  0
  4  5  1  0
  4  7  1  0
  5  6  1  0
  6  1  1  0
  7  8  1  0
  8  9  1  0
  9 10  1  0
 10 11  1  0
 10 13  1  0
 11 12  1  0
 12  7  1  0
 13 14  2  0
 14 15  1  0
 15 16  2  0
 16 17  1  0
 17 18  1  0
 17 39  1  0
 18 19  2  0
 18 22  1  0
 19 20  1  0
 20 16  1  0
 20 21  2  0
 21 13  1  0
 22 23  1  0
 23 24  1  0
 23 38  1  0
 24 25  2  0
 25 26  1  0
 26 27  2  0
 27 28  1  0
 28 29  1  0
 28 36  2  0
 29 30  1  0
 30 31  2  0
 31 32  1  0
 32 33  2  0
 33 34  1  0
 34 35  2  0
 35 30  1  0
 36 37  1  0
 37 22  2  0
 37 25  1  0
M  END
> <CMPD_CHEMBLID>
CHEMBL211662

> <STANDARD_TYPE>
IC50

> <RELATION>
=

> <STANDARD_VALUE>
30

> <STANDARD_UNITS>
nM

> <Molecular_Weight>
492.61468

$$$$

  SciTegic11272012012D

 25 27  0  0  0  0            999 V2000
    2.5619   -3.0003    0.0000 C   0  0
    2.2308   -2.4294    0.0000 O   0  0
    1.4053   -2.4306    0.0000 C   0  0
    1.0763   -3.0028    0.0000 O   0  0
    0.9918   -1.7178    0.0000 C   0  0
    1.3273   -0.9642    0.0000 C   0  0
    0.7145   -0.4125    0.0000 C   0  0
    0.7145    0.4125    0.0000 C   0  0
    0.0000    0.8250    0.0000 C   0  0
   -0.0017    1.6505    0.0000 N   0  0
   -0.7172    2.0622    0.0000 C   0  0
   -1.2882    1.7312    0.0000 O   0  0
   -0.7189    2.8876    0.0000 C   0  0
   -0.0044    3.3002    0.0000 C   0  0
   -0.0044    4.1252    0.0000 C   0  0
   -0.7189    4.5377    0.0000 C   0  0
   -1.4334    4.1252    0.0000 C   0  0
   -1.4334    3.3002    0.0000 C   0  0
   -2.0049    2.9702    0.0000 C   0  0
   -0.7145    0.4125    0.0000 C   0  0
   -0.7145   -0.4125    0.0000 N   0  0
    0.0000   -0.8250    0.0000 C   0  0
    0.1713   -1.6316    0.0000 N   0  0
   -0.1967   -2.0403    0.0000 H   0  0
    0.4741    1.9263    0.0000 H   0  0
  1  2  1  0
  2  3  1  0
  3  4  2  0
  3  5  1  0
  5  6  2  0
  6  7  1  0
  7  8  2  0
  8  9  1  0
  9 10  1  0
  9 20  2  0
 10 11  1  0
 10 25  1  0
 11 12  2  0
 11 13  1  0
 13 14  2  0
 14 15  1  0
 15 16  2  0
 16 17  1  0
 17 18  2  0
 18 13  1  0
 18 19  1  0
 20 21  1  0
 21 22  2  0
 22  7  1  0
 22 23  1  0
 23  5  1  0
 23 24  1  0
M  END
> <CMPD_CHEMBLID>
CHEMBL3347601

> <STANDARD_TYPE>
IC50

> <RELATION>
=

> <STANDARD_VALUE>
30

> <STANDARD_UNITS>
nM

> <Molecular_Weight>
309.3193

$$$$

  SciTegic11272012012D

 37 44  0  0  0  0            999 V2000
   -1.1419    3.4726    0.0000 C   0  0
   -1.5086    2.8609    0.0000 N   0  0
   -1.0758    2.0804    0.0000 C   0  0
   -0.1427    2.0922    0.0000 C   0  0
    0.2972    1.2958    0.0000 C   0  0
   -0.6301    1.2958    0.0000 O   0  0
   -1.0877    0.5528    0.0000 C   0  0
   -1.7107    0.2055    0.0000 C   0  0
   -1.5751    1.3374    0.0000 C   0  0
   -2.4659    1.3618    0.0000 O   0  0
   -2.8057    1.9889    0.0000 C   0  0
   -0.5825   -0.4636    0.0000 N   0  0
   -1.2660   -0.8678    0.0000 C   0  0
   -1.9734   -0.4517    0.0000 C   0  0
   -2.7045   -0.8797    0.0000 C   0  0
   -2.7223   -1.6465    0.0000 C   0  0
   -1.9853   -2.0625    0.0000 C   0  0
   -1.2660   -1.6583    0.0000 C   0  0
    0.1427   -1.6465    0.0000 C   0  0
    0.8500   -2.0625    0.0000 C   0  0
    1.0461   -2.9541    0.0000 C   0  0
    1.9377   -3.0195    0.0000 N   0  0
    2.2884   -2.1576    0.0000 C   0  0
    2.9751   -1.9647    0.0000 O   0  0
    1.5811   -1.6346    0.0000 C   0  0
    1.5930   -0.8678    0.0000 C   0  0
    2.2527    0.3329    0.0000 C   0  0
    2.9482    0.7608    0.0000 C   0  0
    2.9482    1.5632    0.0000 C   0  0
    2.2646    1.9555    0.0000 C   0  0
    1.5692    1.5395    0.0000 C   0  0
    1.5692    0.7370    0.0000 C   0  0
    0.8856    0.3210    0.0000 N   0  0
    0.8619   -0.4517    0.0000 C   0  0
    0.1427   -0.8559    0.0000 C   0  0
    2.2512   -3.5245    0.0000 H   0  0
   -2.1029    2.8709    0.0000 H   0  0
  1  2  1  0
  2  3  1  0
  2 37  1  0
  3  4  1  0
  4  5  1  0
  5  6  1  0
  6  7  1  0
  7  8  1  0
  7  9  1  0
  7 12  1  0
  9  3  1  0
  9 10  1  0
 10 11  1  0
 12 13  1  0
 13 14  2  0
 14 15  1  0
 15 16  2  0
 16 17  1  0
 17 18  2  0
 18 13  1  0
 18 19  1  0
 19 20  2  0
 20 21  1  0
 21 22  1  0
 22 23  1  0
 22 36  1  0
 23 24  2  0
 23 25  1  0
 25 20  1  0
 25 26  2  0
 26 27  1  0
 27 28  2  0
 28 29  1  0
 29 30  2  0
 30 31  1  0
 31 32  2  0
 32 27  1  0
 32 33  1  0
 33  5  1  0
 33 34  1  0
 34 26  1  0
 34 35  2  0
 35 12  1  0
 35 19  1  0
M  END
> <CMPD_CHEMBLID>
CHEMBL388978

> <STANDARD_TYPE>
IC50

> <RELATION>
=

> <STANDARD_VALUE>
30

> <STANDARD_UNITS>
nM

> <Molecular_Weight>
466.53104

$$$$

  SciTegic11272012012D

 29 32  0  0  0  0            999 V2000
    1.2861   -0.7425    0.0000 C   0  0
    0.7144   -0.4125    0.0000 N   0  0
    0.7144    0.4125    0.0000 C   0  0
    1.2861    0.7425    0.0000 O   0  0
    0.0000    0.8250    0.0000 C   0  0
   -0.7144    0.4125    0.0000 C   0  0
   -0.7144   -0.4125    0.0000 C   0  0
   -1.4290   -0.8250    0.0000 C   0  0
   -1.4290   -1.6500    0.0000 N   0  0
   -0.7144   -2.0625    0.0000 C   0  0
   -0.7127   -2.8879    0.0000 N   0  0
    0.0027   -3.2997    0.0000 C   0  0
    0.0056   -4.1247    0.0000 C   0  0
    0.7215   -4.5347    0.0000 C   0  0
    1.4345   -4.1197    0.0000 C   0  0
    2.0072   -4.4477    0.0000 C   0  0
    1.4317   -3.2947    0.0000 C   0  0
    0.7158   -2.8847    0.0000 C   0  0
    0.0000   -1.6500    0.0000 N   0  0
    0.0000   -0.8250    0.0000 C   0  0
    0.0000    1.6504    0.0000 C   0  0
    0.7138    2.0641    0.0000 C   0  0
    1.2859    1.7350    0.0000 Cl  0  0
    0.7125    2.8891    0.0000 C   0  0
   -0.0026    3.3005    0.0000 C   0  0
   -0.7164    2.8868    0.0000 C   0  0
   -0.7151    2.0618    0.0000 C   0  0
   -1.2862    1.7310    0.0000 Cl  0  0
   -1.1886   -3.1638    0.0000 H   0  0
  1  2  1  0
  2  3  1  0
  3  4  2  0
  3  5  1  0
  5  6  2  0
  5 21  1  0
  6  7  1  0
  7  8  2  0
  8  9  1  0
  9 10  2  0
 10 11  1  0
 10 19  1  0
 11 12  1  0
 11 29  1  0
 12 13  2  0
 13 14  1  0
 14 15  2  0
 15 16  1  0
 15 17  1  0
 17 18  2  0
 18 12  1  0
 19 20  2  0
 20  2  1  0
 20  7  1  0
 21 22  2  0
 22 23  1  0
 22 24  1  0
 24 25  2  0
 25 26  1  0
 26 27  2  0
 27 21  1  0
 27 28  1  0
M  END
> <CMPD_CHEMBLID>
CHEMBL111339

> <STANDARD_TYPE>
IC50

> <RELATION>
=

> <STANDARD_VALUE>
30

> <STANDARD_UNITS>
nM

> <Molecular_Weight>
411.28394

$$$$

  SciTegic11272012012D

 23 25  0  0  0  0            999 V2000
    2.0013   -0.4930    0.0000 C   0  0
    1.4302   -0.8237    0.0000 O   0  0
    0.7145   -0.4125    0.0000 C   0  0
    0.7145    0.4125    0.0000 C   0  0
    0.0000    0.8250    0.0000 C   0  0
    0.0000    1.6500    0.0000 N   0  0
   -0.7145    2.0625    0.0000 C   0  0
   -1.4290    1.6500    0.0000 N   0  0
   -1.4290    0.8250    0.0000 C   0  0
   -2.1447    0.4137    0.0000 N   0  0
   -2.8590    0.8275    0.0000 C   0  0
   -3.5749    0.4175    0.0000 C   0  0
   -4.2880    0.8324    0.0000 C   0  0
   -4.2851    1.6574    0.0000 C   0  0
   -3.5692    2.0675    0.0000 C   0  0
   -3.5670    2.7275    0.0000 Br  0  0
   -2.8562    1.6525    0.0000 C   0  0
   -0.7145    0.4125    0.0000 C   0  0
   -0.7145   -0.4125    0.0000 C   0  0
    0.0000   -0.8250    0.0000 C   0  0
   -0.0017   -1.6505    0.0000 O   0  0
   -0.5738   -1.9797    0.0000 C   0  0
   -2.1456   -0.1363    0.0000 H   0  0
  1  2  1  0
  2  3  1  0
  3  4  2  0
  4  5  1  0
  5  6  2  0
  6  7  1  0
  7  8  2  0
  8  9  1  0
  9 10  1  0
  9 18  2  0
 10 11  1  0
 10 23  1  0
 11 12  2  0
 12 13  1  0
 13 14  2  0
 14 15  1  0
 15 16  1  0
 15 17  2  0
 17 11  1  0
 18  5  1  0
 18 19  1  0
 19 20  2  0
 20  3  1  0
 20 21  1  0
 21 22  1  0
M  END
> <CMPD_CHEMBLID>
CHEMBL29197

> <STANDARD_TYPE>
IC50

> <RELATION>
=

> <STANDARD_VALUE>
30

> <STANDARD_UNITS>
nM

> <Molecular_Weight>
360.20526

$$$$

  SciTegic11272012012D

 39 44  0  0  0  0            999 V2000
    2.1322   -5.2018    0.0000 C   0  0
    2.1344   -4.5418    0.0000 N   0  0
    2.8503   -4.1318    0.0000 C   0  0
    2.8532   -3.3068    0.0000 C   0  0
    2.1401   -2.8918    0.0000 N   0  0
    2.1413   -2.0663    0.0000 C   0  0
    1.4273   -1.6521    0.0000 C   0  0
    1.4285   -0.8267    0.0000 O   0  0
    0.7144   -0.4125    0.0000 C   0  0
    0.7144    0.4125    0.0000 C   0  0
    0.0000    0.8250    0.0000 C   0  0
    0.0017    1.6504    0.0000 O   0  0
    0.7171    2.0622    0.0000 C   0  0
    0.7201    2.8872    0.0000 C   0  0
    1.4359    3.2972    0.0000 C   0  0
    2.1489    2.8823    0.0000 O   0  0
    2.1461    2.0573    0.0000 C   0  0
    1.4302    1.6472    0.0000 C   0  0
   -0.7144    0.4125    0.0000 C   0  0
   -1.4289    0.8250    0.0000 C   0  0
   -1.4307    1.6504    0.0000 N   0  0
   -2.1461    2.0622    0.0000 C   0  0
   -2.8592    1.6472    0.0000 C   0  0
   -2.8569    0.9872    0.0000 Cl  0  0
   -3.5751    2.0572    0.0000 C   0  0
   -3.5779    2.8822    0.0000 C   0  0
   -2.8649    3.2972    0.0000 C   0  0
   -2.6964    4.1043    0.0000 O   0  0
   -1.8762    4.1934    0.0000 C   0  0
   -1.5381    3.4409    0.0000 O   0  0
   -2.1490    2.8872    0.0000 C   0  0
   -2.1434    0.4125    0.0000 N   0  0
   -2.1434   -0.4125    0.0000 C   0  0
   -1.4289   -0.8250    0.0000 N   0  0
   -0.7144   -0.4125    0.0000 C   0  0
    0.0000   -0.8250    0.0000 C   0  0
    1.4242   -3.3019    0.0000 C   0  0
    1.4214   -4.1268    0.0000 C   0  0
   -0.9548    1.9263    0.0000 H   0  0
  1  2  1  0
  2  3  1  0
  3  4  1  0
  4  5  1  0
  5  6  1  0
  5 37  1  0
  6  7  1  0
  7  8  1  0
  8  9  1  0
  9 10  2  0
 10 11  1  0
 11 12  1  0
 11 19  2  0
 12 13  1  0
 13 14  1  0
 14 15  1  0
 15 16  1  0
 16 17  1  0
 17 18  1  0
 18 13  1  0
 19 20  1  0
 20 21  1  0
 20 32  2  0
 21 22  1  0
 21 39  1  0
 22 23  2  0
 23 24  1  0
 23 25  1  0
 25 26  2  0
 26 27  1  0
 27 28  1  0
 28 29  1  0
 29 30  1  0
 30 31  1  0
 31 22  1  0
 31 27  2  0
 32 33  1  0
 33 34  2  0
 34 35  1  0
 35 19  1  0
 35 36  2  0
 36  9  1  0
 37 38  1  0
 38  2  1  0
M  END
> <CMPD_CHEMBLID>
CHEMBL217092

> <STANDARD_TYPE>
IC50

> <RELATION>
=

> <STANDARD_VALUE>
30

> <STANDARD_UNITS>
nM

> <Molecular_Weight>
542.02648

$$$$

  SciTegic11272012012D

 42 47  0  0  0  0            999 V2000
    2.7111   -3.2230    0.0000 C   0  0
    2.1402   -2.8918    0.0000 C   0  0
    1.5680   -3.2208    0.0000 C   0  0
    2.1389   -3.5518    0.0000 C   0  0
    2.1413   -2.0664    0.0000 N   0  0
    1.4273   -1.6522    0.0000 C   0  0
    0.8552   -1.9812    0.0000 O   0  0
    1.4285   -0.8267    0.0000 N   0  0
    0.7145   -0.4125    0.0000 C   0  0
    0.7145    0.4125    0.0000 C   0  0
    0.0000    0.8250    0.0000 C   0  0
   -0.7145    0.4125    0.0000 C   0  0
   -1.4987    0.6674    0.0000 N   0  0
   -1.9836    0.0000    0.0000 N   0  0
   -1.4987   -0.6674    0.0000 C   0  0
   -1.7536   -1.4525    0.0000 C   0  0
   -1.2128   -2.0669    0.0000 N   0  0
   -1.6439   -2.7698    0.0000 C   0  0
   -1.4096   -3.5609    0.0000 C   0  0
   -1.9776   -4.1593    0.0000 C   0  0
   -2.7798   -3.9665    0.0000 C   0  0
   -3.0140   -3.1755    0.0000 C   0  0
   -2.4460   -2.5771    0.0000 C   0  0
   -2.5108   -1.7551    0.0000 N   0  0
   -1.7432   -4.9507    0.0000 N   0  0
   -0.9413   -5.1448    0.0000 C   0  0
   -0.7084   -5.9362    0.0000 C   0  0
   -1.2773   -6.5336    0.0000 C   0  0
   -2.0792   -6.3397    0.0000 C   0  0
   -2.3122   -5.5483    0.0000 C   0  0
   -1.0442   -7.3255    0.0000 N   0  0
   -0.2427   -7.5208    0.0000 C   0  0
   -0.0109   -8.3126    0.0000 C   0  0
   -0.5808   -8.9092    0.0000 C   0  0
   -1.3824   -8.7139    0.0000 C   0  0
   -1.6141   -7.9221    0.0000 C   0  0
   -0.7145   -0.4125    0.0000 C   0  0
    0.0000   -0.8250    0.0000 C   0  0
   -2.9780   -1.4648    0.0000 H   0  0
   -1.6686    1.1905    0.0000 H   0  0
    1.9053   -0.5525    0.0000 H   0  0
    2.6181   -1.7922    0.0000 H   0  0
  1  2  1  0
  2  3  1  0
  2  4  1  0
  2  5  1  0
  5  6  1  0
  5 42  1  0
  6  7  2  0
  6  8  1  0
  8  9  1  0
  8 41  1  0
  9 10  2  0
 10 11  1  0
 11 12  2  0
 12 13  1  0
 13 14  1  0
 13 40  1  0
 14 15  2  0
 15 16  1  0
 15 37  1  0
 16 17  2  0
 17 18  1  0
 18 19  2  0
 19 20  1  0
 20 21  2  0
 20 25  1  0
 21 22  1  0
 22 23  2  0
 23 18  1  0
 23 24  1  0
 24 16  1  0
 24 39  1  0
 25 26  1  0
 26 27  1  0
 27 28  1  0
 28 29  1  0
 28 31  1  0
 29 30  1  0
 30 25  1  0
 31 32  1  0
 32 33  1  0
 33 34  1  0
 34 35  1  0
 35 36  1  0
 36 31  1  0
 37 12  1  0
 37 38  2  0
 38  9  1  0
M  END
> <CMPD_CHEMBLID>
CHEMBL378024

> <STANDARD_TYPE>
IC50

> <RELATION>
=

> <STANDARD_VALUE>
30

> <STANDARD_UNITS>
nM

> <Molecular_Weight>
514.66502

$$$$

  SciTegic11272012012D

 19 21  0  0  0  0            999 V2000
    1.4276   -1.4867    0.0000 C   0  0
    1.4285   -0.8267    0.0000 O   0  0
    0.7145   -0.4125    0.0000 C   0  0
    0.7145    0.4125    0.0000 C   0  0
    0.0000    0.8250    0.0000 C   0  0
   -0.7145    0.4125    0.0000 C   0  0
   -1.4290    0.8250    0.0000 C   0  0
   -2.1435    0.4125    0.0000 C   0  0
   -2.8592    0.8238    0.0000 N   0  0
   -3.5735    0.4100    0.0000 C   0  0
   -3.5723   -0.2500    0.0000 O   0  0
   -4.2892    0.8213    0.0000 C   0  0
   -5.0707    0.7961    0.0000 C   0  0
   -4.6582    1.5106    0.0000 C   0  0
   -2.1435   -0.4125    0.0000 N   0  0
   -1.4290   -0.8250    0.0000 C   0  0
   -0.7145   -0.4125    0.0000 C   0  0
    0.0000   -0.8250    0.0000 C   0  0
   -2.8602    1.3738    0.0000 H   0  0
  1  2  1  0
  2  3  1  0
  3  4  2  0
  4  5  1  0
  5  6  2  0
  6  7  1  0
  7  8  2  0
  8  9  1  0
  8 15  1  0
  9 10  1  0
  9 19  1  0
 10 11  2  0
 10 12  1  0
 12 13  1  0
 13 14  1  0
 14 12  1  0
 15 16  2  0
 16 17  1  0
 17  6  1  0
 17 18  2  0
 18  3  1  0
M  END
> <CMPD_CHEMBLID>
CHEMBL3685157

> <STANDARD_TYPE>
Ki

> <RELATION>
=

> <STANDARD_VALUE>
30

> <STANDARD_UNITS>
nM

> <Molecular_Weight>
242.27316

$$$$

  SciTegic11272012012D

 24 26  0  0  0  0            999 V2000
   -0.1742   -2.8725    0.0000 C   0  0
   -0.3790   -2.2450    0.0000 C   0  0
   -1.0247   -2.1088    0.0000 C   0  0
    0.1713   -1.6316    0.0000 N   0  0
    0.9918   -1.7179    0.0000 N   0  0
    1.3273   -0.9642    0.0000 C   0  0
    2.1348   -0.7925    0.0000 C   0  0
    2.7291   -1.3607    0.0000 C   0  0
    3.5209   -1.1288    0.0000 C   0  0
    3.7159   -0.3272    0.0000 C   0  0
    4.3494   -0.1417    0.0000 C   0  0
    3.1193    0.2426    0.0000 C   0  0
    3.3128    1.0450    0.0000 O   0  0
    2.3275    0.0107    0.0000 C   0  0
    0.7145   -0.4125    0.0000 C   0  0
    0.7145    0.4125    0.0000 C   0  0
    1.4285    0.8267    0.0000 N   0  0
    0.0000    0.8250    0.0000 N   0  0
   -0.7145    0.4125    0.0000 C   0  0
   -0.7145   -0.4125    0.0000 N   0  0
    0.0000   -0.8250    0.0000 C   0  0
    1.4277    1.3767    0.0000 H   0  0
    1.9053    0.5525    0.0000 H   0  0
    2.9145    1.4243    0.0000 H   0  0
  1  2  1  0
  2  3  1  0
  2  4  1  0
  4  5  1  0
  5  6  2  0
  6  7  1  0
  6 15  1  0
  7  8  2  0
  8  9  1  0
  9 10  2  0
 10 11  1  0
 10 12  1  0
 12 13  1  0
 12 14  2  0
 13 24  1  0
 14  7  1  0
 15 16  2  0
 16 17  1  0
 16 18  1  0
 17 22  1  0
 17 23  1  0
 18 19  2  0
 19 20  1  0
 20 21  2  0
 21  4  1  0
 21 15  1  0
M  END
> <CMPD_CHEMBLID>
CHEMBL1242026

> <STANDARD_TYPE>
IC50

> <RELATION>
=

> <STANDARD_VALUE>
31

> <STANDARD_UNITS>
nM

> <Molecular_Weight>
283.32838

$$$$

  SciTegic11272012012D

 39 43  0  0  0  0            999 V2000
   -8.0924    0.7225    0.0000 C   0  0
   -7.8908    0.0941    0.0000 N   0  0
   -8.4451   -0.5169    0.0000 C   0  0
   -8.1930   -1.3025    0.0000 C   0  0
   -7.3867   -1.4771    0.0000 N   0  0
   -7.1329   -2.2625    0.0000 C   0  0
   -6.3259   -2.4360    0.0000 C   0  0
   -5.7738   -1.8230    0.0000 C   0  0
   -4.9668   -1.9947    0.0000 C   0  0
   -4.7120   -2.7794    0.0000 C   0  0
   -3.9050   -2.9528    0.0000 N   0  0
   -3.6512   -3.7383    0.0000 C   0  0
   -4.0938   -4.2279    0.0000 O   0  0
   -2.8442   -3.9117    0.0000 C   0  0
   -2.5894   -4.6964    0.0000 C   0  0
   -1.7825   -4.8681    0.0000 C   0  0
   -1.2303   -4.2551    0.0000 C   0  0
   -1.4851   -3.4705    0.0000 C   0  0
   -2.2920   -3.2988    0.0000 C   0  0
   -0.9327   -2.8571    0.0000 C   0  0
   -0.3802   -2.2438    0.0000 C   0  0
    0.1713   -1.6316    0.0000 C   0  0
    0.9917   -1.7178    0.0000 C   0  0
    1.3273   -0.9641    0.0000 N   0  0
    0.7144   -0.4125    0.0000 C   0  0
    0.7144    0.4125    0.0000 C   0  0
    0.0000    0.8250    0.0000 C   0  0
   -0.7144    0.4125    0.0000 C   0  0
   -0.7144   -0.4125    0.0000 N   0  0
    0.0000   -0.8250    0.0000 N   0  0
   -5.2643   -3.3924    0.0000 C   0  0
   -6.0712   -3.2207    0.0000 C   0  0
   -6.6236   -3.8339    0.0000 C   0  0
   -6.4202   -4.4618    0.0000 F   0  0
   -7.2692   -3.6964    0.0000 F   0  0
   -7.0656   -4.3241    0.0000 F   0  0
   -6.8325   -0.8660    0.0000 C   0  0
   -7.0845   -0.0804    0.0000 C   0  0
   -3.5362   -2.5448    0.0000 H   0  0
  1  2  1  0
  2  3  1  0
  3  4  1  0
  4  5  1  0
  5  6  1  0
  5 37  1  0
  6  7  1  0
  7  8  2  0
  8  9  1  0
  9 10  2  0
 10 11  1  0
 10 31  1  0
 11 12  1  0
 11 39  1  0
 12 13  2  0
 12 14  1  0
 14 15  2  0
 15 16  1  0
 16 17  2  0
 17 18  1  0
 18 19  2  0
 18 20  1  0
 19 14  1  0
 20 21  3  0
 21 22  1  0
 22 23  2  0
 23 24  1  0
 24 25  2  0
 25 26  1  0
 26 27  2  0
 27 28  1  0
 28 29  2  0
 29 30  1  0
 30 22  1  0
 30 25  1  0
 31 32  2  0
 32  7  1  0
 32 33  1  0
 33 34  1  0
 33 35  1  0
 33 36  1  0
 37 38  1  0
 38  2  1  0
M  END
> <CMPD_CHEMBLID>
CHEMBL1173423

> <STANDARD_TYPE>
IC50

> <RELATION>
=

> <STANDARD_VALUE>
31

> <STANDARD_UNITS>
nM

> <Molecular_Weight>
518.53291

$$$$

  SciTegic11272012012D

 38 41  0  0  0  0            999 V2000
    1.2861   -0.7425    0.0000 C   0  0
    0.7144   -0.4125    0.0000 N   0  0
    0.7144    0.4125    0.0000 C   0  0
    0.0000    0.8250    0.0000 C   0  0
   -0.7144    0.4125    0.0000 N   0  0
   -1.4302    0.8237    0.0000 C   0  0
   -2.1444    0.4100    0.0000 C   0  0
   -2.1416   -0.4150    0.0000 C   0  0
   -2.8546   -0.8300    0.0000 C   0  0
   -3.5706   -0.4200    0.0000 C   0  0
   -4.2849   -0.8337    0.0000 N   0  0
   -5.0006   -0.4225    0.0000 C   0  0
   -5.0017    0.2375    0.0000 O   0  0
   -5.7149   -0.8362    0.0000 N   0  0
   -6.4305   -0.4249    0.0000 C   0  0
   -7.1738   -0.7664    0.0000 C   0  0
   -7.7258   -0.1533    0.0000 C   0  0
   -8.5453   -0.2395    0.0000 C   0  0
   -9.3662   -0.3257    0.0000 C   0  0
  -10.1871   -0.4120    0.0000 C   0  0
  -10.5228   -1.1657    0.0000 C   0  0
  -11.3432   -1.2518    0.0000 C   0  0
  -11.8281   -0.5844    0.0000 C   0  0
  -11.4926    0.1692    0.0000 N   0  0
  -10.6721    0.2555    0.0000 C   0  0
   -7.3133    0.5611    0.0000 N   0  0
   -7.5817    1.1641    0.0000 C   0  0
   -6.5064    0.3896    0.0000 N   0  0
   -3.5734    0.4050    0.0000 C   0  0
   -2.8604    0.8200    0.0000 C   0  0
   -2.8633    1.6454    0.0000 C   0  0
   -3.4358    1.9738    0.0000 F   0  0
   -2.2927    1.9772    0.0000 F   0  0
   -2.8653    2.3054    0.0000 F   0  0
   -0.7144   -0.4125    0.0000 C   0  0
    0.0000   -0.8250    0.0000 C   0  0
   -5.7139   -1.3862    0.0000 H   0  0
   -4.2839   -1.3837    0.0000 H   0  0
  1  2  1  0
  2  3  1  0
  3  4  1  0
  4  5  1  0
  5  6  1  0
  5 35  1  0
  6  7  1  0
  7  8  2  0
  8  9  1  0
  9 10  2  0
 10 11  1  0
 10 29  1  0
 11 12  1  0
 11 38  1  0
 12 13  2  0
 12 14  1  0
 14 15  1  0
 14 37  1  0
 15 16  1  0
 16 17  2  0
 17 18  1  0
 17 26  1  0
 18 19  3  0
 19 20  1  0
 20 21  2  0
 21 22  1  0
 22 23  2  0
 23 24  1  0
 24 25  2  0
 25 20  1  0
 26 27  1  0
 26 28  1  0
 28 15  2  0
 29 30  2  0
 30  7  1  0
 30 31  1  0
 31 32  1  0
 31 33  1  0
 31 34  1  0
 35 36  1  0
 36  2  1  0
M  END
> <CMPD_CHEMBLID>
CHEMBL2324928

> <STANDARD_TYPE>
IC50

> <RELATION>
=

> <STANDARD_VALUE>
31

> <STANDARD_UNITS>
nM

> <Molecular_Weight>
497.51545

$$$$

  SciTegic11272012012D

 31 34  0  0  0  0            999 V2000
    2.0013   -0.4930    0.0000 C   0  0
    1.4302   -0.8237    0.0000 O   0  0
    0.7144   -0.4125    0.0000 C   0  0
    0.7144    0.4125    0.0000 C   0  0
    0.0000    0.8250    0.0000 C   0  0
    0.0000    1.6500    0.0000 C   0  0
    0.7140    2.0642    0.0000 N   0  0
    0.7128    2.8896    0.0000 C   0  0
   -0.0031    3.2997    0.0000 C   0  0
   -0.0059    4.1247    0.0000 C   0  0
    0.7071    4.5397    0.0000 C   0  0
    0.7048    5.1997    0.0000 Br  0  0
    1.4230    4.1297    0.0000 C   0  0
    1.4258    3.3047    0.0000 C   0  0
    1.9986    2.9767    0.0000 F   0  0
   -0.7145    2.0625    0.0000 N   0  0
   -1.4290    1.6500    0.0000 C   0  0
   -1.4290    0.8250    0.0000 N   0  0
   -0.7144    0.4125    0.0000 C   0  0
   -0.7144   -0.4125    0.0000 C   0  0
    0.0000   -0.8250    0.0000 C   0  0
   -0.0017   -1.6504    0.0000 O   0  0
   -0.7171   -2.0622    0.0000 C   0  0
   -0.7188   -2.8876    0.0000 C   0  0
   -1.4333   -3.3002    0.0000 C   0  0
   -1.4333   -4.1252    0.0000 C   0  0
   -0.7188   -4.5377    0.0000 N   0  0
   -0.7188   -5.1977    0.0000 C   0  0
   -0.0044   -4.1252    0.0000 C   0  0
   -0.0043   -3.3002    0.0000 C   0  0
    1.1908    1.7900    0.0000 H   0  0
  1  2  1  0
  2  3  1  0
  3  4  2  0
  4  5  1  0
  5  6  2  0
  6  7  1  0
  6 16  1  0
  7  8  1  0
  7 31  1  0
  8  9  2  0
  9 10  1  0
 10 11  2  0
 11 12  1  0
 11 13  1  0
 13 14  2  0
 14  8  1  0
 14 15  1  0
 16 17  2  0
 17 18  1  0
 18 19  2  0
 19  5  1  0
 19 20  1  0
 20 21  2  0
 21  3  1  0
 21 22  1  0
 22 23  1  0
 23 24  1  0
 24 25  1  0
 25 26  1  0
 26 27  1  0
 27 28  1  0
 27 29  1  0
 29 30  1  0
 30 24  1  0
M  END
> <CMPD_CHEMBLID>
CHEMBL24828

> <STANDARD_TYPE>
Ki

> <RELATION>
=

> <STANDARD_VALUE>
31.62

> <STANDARD_UNITS>
nM

> <Molecular_Weight>
475.35396

$$$$

  SciTegic11272012012D

 36 40  0  0  0  0            999 V2000
    1.4302   -0.8237    0.0000 N   0  0
    0.7144   -0.4125    0.0000 C   0  0
    0.7144    0.4125    0.0000 N   0  0
    0.0000    0.8250    0.0000 C   0  0
   -0.7144    0.4125    0.0000 C   0  0
   -1.4293    0.8252    0.0000 C   0  0
   -1.5064    1.6395    0.0000 C   0  0
   -2.3137    1.8098    0.0000 O   0  0
   -2.7250    1.0947    0.0000 C   0  0
   -2.1721    0.4825    0.0000 C   0  0
   -0.7144   -0.4125    0.0000 C   0  0
   -1.3273   -0.9641    0.0000 S   0  0
   -0.9918   -1.7178    0.0000 C   0  0
   -0.1713   -1.6316    0.0000 C   0  0
    0.3811   -2.2449    0.0000 C   0  0
    0.1862   -3.0438    0.0000 C   0  0
    0.7828   -3.6135    0.0000 C   0  0
    1.5746   -3.3816    0.0000 C   0  0
    2.1728   -3.9505    0.0000 N   0  0
    2.9646   -3.7174    0.0000 C   0  0
    3.1195   -3.0758    0.0000 O   0  0
    3.5628   -4.2862    0.0000 N   0  0
    4.3546   -4.0531    0.0000 C   0  0
    4.9533   -4.6208    0.0000 C   0  0
    5.7443   -4.3861    0.0000 C   0  0
    5.9366   -3.5839    0.0000 C   0  0
    5.3379   -3.0162    0.0000 C   0  0
    5.4917   -2.3744    0.0000 F   0  0
    4.5470   -3.2508    0.0000 C   0  0
    1.7697   -2.5800    0.0000 C   0  0
    1.1730   -2.0103    0.0000 C   0  0
    0.0000   -0.8250    0.0000 C   0  0
    3.4337   -4.8208    0.0000 H   0  0
    2.0436   -4.4851    0.0000 H   0  0
    1.9061   -0.5481    0.0000 H   0  0
    1.4312   -1.3737    0.0000 H   0  0
  1  2  1  0
  1 35  1  0
  1 36  1  0
  2  3  2  0
  3  4  1  0
  4  5  2  0
  5  6  1  0
  5 11  1  0
  6  7  2  0
  7  8  1  0
  8  9  1  0
  9 10  2  0
 10  6  1  0
 11 12  1  0
 12 13  1  0
 13 14  2  0
 14 15  1  0
 14 32  1  0
 15 16  2  0
 16 17  1  0
 17 18  2  0
 18 19  1  0
 18 30  1  0
 19 20  1  0
 19 34  1  0
 20 21  2  0
 20 22  1  0
 22 23  1  0
 22 33  1  0
 23 24  2  0
 24 25  1  0
 25 26  2  0
 26 27  1  0
 27 28  1  0
 27 29  2  0
 29 23  1  0
 30 31  2  0
 31 15  1  0
 32  2  1  0
 32 11  2  0
M  END
> <CMPD_CHEMBLID>
CHEMBL1966514

> <STANDARD_TYPE>
Ki

> <RELATION>
=

> <STANDARD_VALUE>
31.62

> <STANDARD_UNITS>
nM

> <Molecular_Weight>
444.48078

$$$$

  SciTegic11272012012D

 35 38  0  0  0  0            999 V2000
    1.4302   -0.8237    0.0000 N   0  0
    0.7144   -0.4125    0.0000 C   0  0
    0.7144    0.4125    0.0000 N   0  0
    0.0000    0.8250    0.0000 C   0  0
   -0.7144    0.4125    0.0000 N   0  0
   -0.7144   -0.4125    0.0000 C   0  0
   -1.3273   -0.9641    0.0000 S   0  0
   -0.9918   -1.7178    0.0000 C   0  0
   -0.1713   -1.6316    0.0000 C   0  0
    0.3811   -2.2449    0.0000 C   0  0
    0.1862   -3.0437    0.0000 C   0  0
    0.7828   -3.6135    0.0000 C   0  0
    1.5746   -3.3816    0.0000 C   0  0
    2.1728   -3.9505    0.0000 N   0  0
    2.9646   -3.7174    0.0000 C   0  0
    3.1195   -3.0758    0.0000 O   0  0
    3.5628   -4.2862    0.0000 N   0  0
    4.3546   -4.0530    0.0000 C   0  0
    4.5469   -3.2508    0.0000 C   0  0
    5.3379   -3.0162    0.0000 C   0  0
    5.9365   -3.5838    0.0000 C   0  0
    5.7442   -4.3861    0.0000 C   0  0
    4.9533   -4.6207    0.0000 C   0  0
    4.7994   -5.2625    0.0000 F   0  0
    5.5303   -2.2135    0.0000 C   0  0
    5.0517   -1.7590    0.0000 F   0  0
    6.1631   -2.0260    0.0000 F   0  0
    5.6845   -1.5717    0.0000 F   0  0
    1.7697   -2.5800    0.0000 C   0  0
    1.1730   -2.0103    0.0000 C   0  0
    0.0000   -0.8250    0.0000 C   0  0
    3.4336   -4.8208    0.0000 H   0  0
    2.0436   -4.4851    0.0000 H   0  0
    1.9061   -0.5481    0.0000 H   0  0
    1.4311   -1.3737    0.0000 H   0  0
  1  2  1  0
  1 34  1  0
  1 35  1  0
  2  3  2  0
  3  4  1  0
  4  5  2  0
  5  6  1  0
  6  7  1  0
  7  8  1  0
  8  9  2  0
  9 10  1  0
  9 31  1  0
 10 11  2  0
 11 12  1  0
 12 13  2  0
 13 14  1  0
 13 29  1  0
 14 15  1  0
 14 33  1  0
 15 16  2  0
 15 17  1  0
 17 18  1  0
 17 32  1  0
 18 19  2  0
 19 20  1  0
 20 21  2  0
 20 25  1  0
 21 22  1  0
 22 23  2  0
 23 18  1  0
 23 24  1  0
 25 26  1  0
 25 27  1  0
 25 28  1  0
 29 30  2  0
 30 10  1  0
 31  2  1  0
 31  6  2  0
M  END
> <CMPD_CHEMBLID>
CHEMBL1998585

> <STANDARD_TYPE>
Ki

> <RELATION>
=

> <STANDARD_VALUE>
31.62

> <STANDARD_UNITS>
nM

> <Molecular_Weight>
447.40873

$$$$

  SciTegic11272012012D

 46 50  0  0  0  0            999 V2000
    3.1314    2.6035    0.0000 C   0  0
    2.8663    1.9991    0.0000 N   0  0
    2.2103    1.9267    0.0000 C   0  0
    3.3548    1.3337    0.0000 C   0  0
    3.0238    0.5790    0.0000 C   0  0
    3.4388   -0.1340    0.0000 C   0  0
    2.8889   -0.7490    0.0000 C   0  0
    2.1444   -0.4100    0.0000 N   0  0
    1.4302   -0.8237    0.0000 C   0  0
    0.7144   -0.4125    0.0000 C   0  0
    0.7144    0.4125    0.0000 C   0  0
    0.0000    0.8250    0.0000 C   0  0
   -0.7144    0.4125    0.0000 C   0  0
   -0.7144   -0.4125    0.0000 C   0  0
    0.0000   -0.8250    0.0000 C   0  0
    0.0000   -1.6504    0.0000 C   0  0
   -0.5713   -1.9808    0.0000 F   0  0
    0.5717   -1.9803    0.0000 F   0  0
    0.0003   -2.3104    0.0000 F   0  0
   -1.4302    0.8237    0.0000 C   0  0
   -1.4334    1.6492    0.0000 O   0  0
   -2.1444    0.4100    0.0000 N   0  0
   -2.8602    0.8213    0.0000 C   0  0
   -3.5747    0.4088    0.0000 C   0  0
   -4.2892    0.8213    0.0000 C   0  0
   -4.2892    1.6463    0.0000 C   0  0
   -4.8608    1.9763    0.0000 C   0  0
   -3.5747    2.0588    0.0000 C   0  0
   -3.5731    2.8843    0.0000 N   0  0
   -2.8576    3.2960    0.0000 C   0  0
   -2.8547    4.1210    0.0000 N   0  0
   -2.1388    4.5310    0.0000 C   0  0
   -1.4258    4.1161    0.0000 C   0  0
   -1.4286    3.2911    0.0000 C   0  0
   -2.1445    2.8810    0.0000 N   0  0
   -0.7152    2.8759    0.0000 C   0  0
    0.0014    3.2848    0.0000 C   0  0
    0.7138    2.8687    0.0000 N   0  0
    0.7096    2.0437    0.0000 C   0  0
   -0.0069    1.6348    0.0000 N   0  0
   -0.7193    2.0509    0.0000 C   0  0
   -2.8602    1.6463    0.0000 C   0  0
    2.2174    0.4047    0.0000 C   0  0
   -4.0489    3.1600    0.0000 H   0  0
   -2.1435   -0.1400    0.0000 H   0  0
   -1.9105    1.9227    0.0000 H   0  0
  1  2  1  0
  2  3  1  0
  2  4  1  0
  4  5  1  0
  5  6  1  0
  6  7  1  0
  7  8  1  0
  8  9  1  0
  8 43  1  0
  9 10  1  0
 10 11  2  0
 11 12  1  0
 12 13  2  0
 13 14  1  0
 13 20  1  0
 14 15  2  0
 15 10  1  0
 15 16  1  0
 16 17  1  0
 16 18  1  0
 16 19  1  0
 20 21  1  0
 20 22  1  0
 21 46  1  0
 22 23  1  0
 22 45  1  0
 23 24  2  0
 24 25  1  0
 25 26  2  0
 26 27  1  0
 26 28  1  0
 28 29  1  0
 28 42  2  0
 29 30  1  0
 29 44  1  0
 30 31  2  0
 31 32  1  0
 32 33  2  0
 33 34  1  0
 34 35  2  0
 34 36  1  0
 35 30  1  0
 36 37  2  0
 37 38  1  0
 38 39  2  0
 39 40  1  0
 40 41  2  0
 41 36  1  0
 42 23  1  0
 43  5  1  0
M  END
> <CMPD_CHEMBLID>
CHEMBL538337

> <STANDARD_TYPE>
IC50

> <RELATION>
=

> <STANDARD_VALUE>
32

> <STANDARD_UNITS>
nM

> <Molecular_Weight>
592.65781

$$$$

  SciTegic11272012012D

 25 28  0  0  0  0            999 V2000
    1.4302   -0.8238    0.0000 N   0  0
    0.7145   -0.4125    0.0000 C   0  0
    0.7145    0.4125    0.0000 N   0  0
    0.0000    0.8250    0.0000 C   0  0
   -0.7145    0.4125    0.0000 N   0  0
   -0.7145   -0.4125    0.0000 C   0  0
    0.0000   -0.8250    0.0000 C   0  0
   -0.1713   -1.6316    0.0000 C   0  0
   -0.9918   -1.7178    0.0000 N   0  0
   -1.3273   -0.9642    0.0000 N   0  0
   -2.1348   -0.7925    0.0000 C   0  0
   -2.8320   -1.1903    0.0000 C   0  0
   -3.2226   -0.4637    0.0000 C   0  0
   -2.4959   -0.0730    0.0000 C   0  0
    0.3811   -2.2450    0.0000 C   0  0
    1.1959   -2.1345    0.0000 C   0  0
    1.7002   -2.7874    0.0000 C   0  0
    1.3870   -3.5506    0.0000 C   0  0
    1.7905   -4.0729    0.0000 Cl  0  0
    0.5694   -3.6610    0.0000 C   0  0
    0.2544   -4.4240    0.0000 O   0  0
    0.0651   -3.0081    0.0000 C   0  0
   -0.2907   -4.4968    0.0000 H   0  0
    1.9062   -0.5481    0.0000 H   0  0
    1.4312   -1.3738    0.0000 H   0  0
  1  2  1  0
  1 24  1  0
  1 25  1  0
  2  3  2  0
  3  4  1  0
  4  5  2  0
  5  6  1  0
  6  7  2  0
  7  2  1  0
  7  8  1  0
  8  9  2  0
  8 15  1  0
  9 10  1  0
 10  6  1  0
 10 11  1  0
 11 12  1  0
 12 13  1  0
 13 14  1  0
 14 11  1  0
 15 16  2  0
 16 17  1  0
 17 18  2  0
 18 19  1  0
 18 20  1  0
 20 21  1  0
 20 22  2  0
 21 23  1  0
 22 15  1  0
M  END
> <CMPD_CHEMBLID>
CHEMBL1241580

> <STANDARD_TYPE>
IC50

> <RELATION>
=

> <STANDARD_VALUE>
32

> <STANDARD_UNITS>
nM

> <Molecular_Weight>
315.75756

$$$$

  SciTegic11272012012D

 36 40  0  0  0  0            999 V2000
   -1.6849   -2.8449    0.0000 C   0  0
   -1.4811   -3.4726    0.0000 C   0  0
   -2.0332   -4.0856    0.0000 C   0  0
   -1.7784   -4.8703    0.0000 C   0  0
   -0.9714   -5.0420    0.0000 C   0  0
   -0.4193   -4.4289    0.0000 C   0  0
    0.2263   -4.5663    0.0000 C   0  0
   -0.6741   -3.6442    0.0000 C   0  0
   -0.1229   -3.0298    0.0000 C   0  0
   -0.3790   -2.2450    0.0000 C   0  0
    0.1713   -1.6316    0.0000 N   0  0
    0.9918   -1.7178    0.0000 C   0  0
    1.3273   -0.9642    0.0000 N   0  0
    0.7145   -0.4125    0.0000 C   0  0
    0.7145    0.4125    0.0000 C   0  0
    1.4285    0.8267    0.0000 N   0  0
    1.4273    1.6522    0.0000 C   0  0
    2.1403    2.0672    0.0000 C   0  0
    2.1375    2.8922    0.0000 C   0  0
    1.4216    3.3022    0.0000 C   0  0
    0.7086    2.8873    0.0000 C   0  0
    0.7114    2.0622    0.0000 C   0  0
    1.4187    4.1277    0.0000 P   0  0
    1.9889    4.4601    0.0000 O   0  0
    0.8459    4.4555    0.0000 C   0  0
    1.4162    4.7877    0.0000 C   0  0
    0.0000    0.8250    0.0000 N   0  0
   -0.7145    0.4125    0.0000 C   0  0
   -0.7145   -0.4125    0.0000 N   0  0
    0.0000   -0.8250    0.0000 C   0  0
   -1.4293    0.8252    0.0000 C   0  0
   -1.5065    1.6396    0.0000 C   0  0
   -2.3137    1.8098    0.0000 C   0  0
   -2.7251    1.0947    0.0000 C   0  0
   -2.1721    0.4825    0.0000 C   0  0
    1.9053    0.5525    0.0000 H   0  0
  1  2  1  0
  2  3  2  0
  3  4  1  0
  4  5  2  0
  5  6  1  0
  6  7  1  0
  6  8  2  0
  8  2  1  0
  8  9  1  0
  9 10  2  0
 10 11  1  0
 11 12  1  0
 12 13  2  0
 13 14  1  0
 14 15  2  0
 15 16  1  0
 15 27  1  0
 16 17  1  0
 16 36  1  0
 17 18  2  0
 18 19  1  0
 19 20  2  0
 20 21  1  0
 20 23  1  0
 21 22  2  0
 22 17  1  0
 23 24  2  0
 23 25  1  0
 23 26  1  0
 27 28  2  0
 28 29  1  0
 28 31  1  0
 29 30  2  0
 30 11  1  0
 30 14  1  0
 31 32  1  0
 32 33  1  0
 33 34  1  0
 34 35  1  0
 35 31  1  0
M  END
> <CMPD_CHEMBLID>
CHEMBL460074

> <STANDARD_TYPE>
IC50

> <RELATION>
=

> <STANDARD_VALUE>
32.3

> <STANDARD_UNITS>
nM

> <Molecular_Weight>
485.56034

$$$$

  SciTegic11272012012D

 26 28  0  0  0  0            999 V2000
    2.1455    0.2461    0.0000 C   0  0
    2.1445   -0.4139    0.0000 C   0  0
    2.8583   -0.8275    0.0000 C   0  0
    2.8570   -1.6525    0.0000 C   0  0
    2.1419   -2.0639    0.0000 C   0  0
    2.1408   -2.7239    0.0000 F   0  0
    1.4281   -1.6502    0.0000 C   0  0
    1.4293   -0.8252    0.0000 C   0  0
    0.7144   -0.4125    0.0000 C   0  0
    0.7144    0.4125    0.0000 C   0  0
    0.0000    0.8250    0.0000 C   0  0
   -0.7144    0.4125    0.0000 C   0  0
   -1.4290    0.8250    0.0000 C   0  0
   -2.1434    0.4125    0.0000 C   0  0
   -2.8591    0.8237    0.0000 N   0  0
   -3.5734    0.4100    0.0000 C   0  0
   -3.5722   -0.2500    0.0000 O   0  0
   -4.2891    0.8213    0.0000 C   0  0
   -4.8602    0.4904    0.0000 F   0  0
   -4.8612    1.1503    0.0000 F   0  0
   -4.2903    1.4813    0.0000 F   0  0
   -2.1434   -0.4125    0.0000 N   0  0
   -1.4290   -0.8250    0.0000 C   0  0
   -0.7144   -0.4125    0.0000 C   0  0
    0.0000   -0.8250    0.0000 C   0  0
   -2.8601    1.3737    0.0000 H   0  0
  1  2  1  0
  2  3  2  0
  3  4  1  0
  4  5  2  0
  5  6  1  0
  5  7  1  0
  7  8  2  0
  8  2  1  0
  8  9  1  0
  9 10  2  0
 10 11  1  0
 11 12  2  0
 12 13  1  0
 13 14  2  0
 14 15  1  0
 14 22  1  0
 15 16  1  0
 15 26  1  0
 16 17  2  0
 16 18  1  0
 18 19  1  0
 18 20  1  0
 18 21  1  0
 22 23  2  0
 23 24  1  0
 24 12  1  0
 24 25  2  0
 25  9  1  0
M  END
> <CMPD_CHEMBLID>
CHEMBL3685065

> <STANDARD_TYPE>
Ki

> <RELATION>
=

> <STANDARD_VALUE>
33

> <STANDARD_UNITS>
nM

> <Molecular_Weight>
348.29429

$$$$

  SciTegic11272012012D

 42 45  0  0  0  0            999 V2000
    2.8613   -1.4813    0.0000 C   0  0
    2.8601   -0.8213    0.0000 N   0  0
    3.5744   -0.4075    0.0000 C   0  0
    4.2901   -0.8188    0.0000 O   0  0
    2.1444   -0.4100    0.0000 N   0  0
    1.4302   -0.8237    0.0000 N   0  0
    0.7144   -0.4125    0.0000 C   0  0
    0.7144    0.4125    0.0000 C   0  0
    0.0000    0.8250    0.0000 C   0  0
   -0.7144    0.4125    0.0000 C   0  0
   -0.7144   -0.4125    0.0000 C   0  0
    0.0000   -0.8250    0.0000 C   0  0
    0.0000   -1.6504    0.0000 C   0  0
   -0.5713   -1.9808    0.0000 F   0  0
    0.5717   -1.9803    0.0000 F   0  0
    0.0003   -2.3104    0.0000 F   0  0
   -1.4302    0.8237    0.0000 C   0  0
   -1.4313    1.4837    0.0000 O   0  0
   -2.1444    0.4100    0.0000 N   0  0
   -2.8601    0.8213    0.0000 C   0  0
   -3.5746    0.4088    0.0000 C   0  0
   -4.2892    0.8213    0.0000 C   0  0
   -4.2892    1.6463    0.0000 C   0  0
   -4.8608    1.9762    0.0000 C   0  0
   -3.5747    2.0587    0.0000 C   0  0
   -3.5731    2.8842    0.0000 N   0  0
   -2.8576    3.2960    0.0000 C   0  0
   -2.8547    4.1210    0.0000 N   0  0
   -2.1388    4.5310    0.0000 C   0  0
   -1.4258    4.1161    0.0000 C   0  0
   -1.4286    3.2911    0.0000 C   0  0
   -2.1445    2.8810    0.0000 N   0  0
   -0.7152    2.8759    0.0000 C   0  0
    0.0014    3.2848    0.0000 C   0  0
    0.7138    2.8687    0.0000 C   0  0
    0.7096    2.0437    0.0000 C   0  0
   -0.0069    1.6348    0.0000 N   0  0
   -0.7193    2.0509    0.0000 C   0  0
   -2.8602    1.6463    0.0000 C   0  0
   -4.0489    3.1600    0.0000 H   0  0
   -2.1435   -0.1400    0.0000 H   0  0
    4.7661   -0.5431    0.0000 H   0  0
  1  2  1  0
  2  3  1  0
  2  5  1  0
  3  4  1  0
  4 42  1  0
  5  6  2  0
  6  7  1  0
  7  8  2  0
  8  9  1  0
  9 10  2  0
 10 11  1  0
 10 17  1  0
 11 12  2  0
 12  7  1  0
 12 13  1  0
 13 14  1  0
 13 15  1  0
 13 16  1  0
 17 18  2  0
 17 19  1  0
 19 20  1  0
 19 41  1  0
 20 21  2  0
 21 22  1  0
 22 23  2  0
 23 24  1  0
 23 25  1  0
 25 26  1  0
 25 39  2  0
 26 27  1  0
 26 40  1  0
 27 28  2  0
 28 29  1  0
 29 30  2  0
 30 31  1  0
 31 32  2  0
 31 33  1  0
 32 27  1  0
 33 34  2  0
 34 35  1  0
 35 36  2  0
 36 37  1  0
 37 38  2  0
 38 33  1  0
 39 20  1  0
M  END
> <CMPD_CHEMBLID>
CHEMBL230285

> <STANDARD_TYPE>
IC50

> <RELATION>
=

> <STANDARD_VALUE>
33

> <STANDARD_UNITS>
nM

> <Molecular_Weight>
536.50843

$$$$

  SciTegic11272012012D

 30 33  0  0  0  0            999 V2000
    2.1456    0.2461    0.0000 C   0  0
    2.1445   -0.4139    0.0000 C   0  0
    2.8583   -0.8275    0.0000 C   0  0
    2.8570   -1.6525    0.0000 C   0  0
    2.1419   -2.0639    0.0000 C   0  0
    1.4281   -1.6502    0.0000 C   0  0
    1.4293   -0.8252    0.0000 C   0  0
    0.7145   -0.4125    0.0000 C   0  0
    0.7145    0.4125    0.0000 C   0  0
    0.0000    0.8250    0.0000 C   0  0
   -0.7145    0.4125    0.0000 C   0  0
   -1.4290    0.8250    0.0000 C   0  0
   -1.4290    1.4850    0.0000 Cl  0  0
   -2.1434    0.4125    0.0000 C   0  0
   -2.8592    0.8237    0.0000 N   0  0
   -2.1434   -0.4125    0.0000 N   0  0
   -1.4290   -0.8250    0.0000 C   0  0
   -0.7145   -0.4125    0.0000 C   0  0
    0.0000   -0.8250    0.0000 C   0  0
    2.1389   -2.8894    0.0000 C   0  0
    2.7094   -3.2213    0.0000 O   0  0
    1.4228   -3.2999    0.0000 N   0  0
    1.4198   -4.1254    0.0000 C   0  0
    0.8471   -4.4535    0.0000 C   0  0
    2.1730   -3.8888    0.0000 C   0  0
    2.3837   -4.6864    0.0000 C   0  0
    1.5861   -4.8972    0.0000 C   0  0
    0.9474   -3.0233    0.0000 H   0  0
   -3.3351    0.5481    0.0000 H   0  0
   -2.8601    1.3738    0.0000 H   0  0
  1  2  1  0
  2  3  2  0
  3  4  1  0
  4  5  2  0
  5  6  1  0
  5 20  1  0
  6  7  2  0
  7  2  1  0
  7  8  1  0
  8  9  2  0
  9 10  1  0
 10 11  2  0
 11 12  1  0
 12 13  1  0
 12 14  2  0
 14 15  1  0
 14 16  1  0
 15 29  1  0
 15 30  1  0
 16 17  2  0
 17 18  1  0
 18 11  1  0
 18 19  2  0
 19  8  1  0
 20 21  2  0
 20 22  1  0
 22 23  1  0
 22 28  1  0
 23 24  1  0
 23 25  1  0
 25 26  1  0
 26 27  1  0
 27 23  1  0
M  END
> <CMPD_CHEMBLID>
CHEMBL3689755

> <STANDARD_TYPE>
Ki

> <RELATION>
=

> <STANDARD_VALUE>
33.5

> <STANDARD_UNITS>
nM

> <Molecular_Weight>
379.88258

$$$$

  SciTegic11272012012D

 31 34  0  0  0  0            999 V2000
    2.1455    0.2461    0.0000 C   0  0
    2.1445   -0.4139    0.0000 C   0  0
    2.8583   -0.8275    0.0000 C   0  0
    2.8570   -1.6525    0.0000 C   0  0
    2.1419   -2.0639    0.0000 N   0  0
    1.4281   -1.6502    0.0000 C   0  0
    1.4293   -0.8252    0.0000 C   0  0
    0.7144   -0.4125    0.0000 C   0  0
    0.7144    0.4125    0.0000 C   0  0
    0.0000    0.8250    0.0000 C   0  0
   -0.7144    0.4125    0.0000 C   0  0
   -1.4290    0.8250    0.0000 C   0  0
   -2.1434    0.4125    0.0000 C   0  0
   -2.8591    0.8237    0.0000 N   0  0
   -3.5734    0.4100    0.0000 C   0  0
   -3.5722   -0.2500    0.0000 O   0  0
   -4.2891    0.8213    0.0000 C   0  0
   -4.6581    1.5106    0.0000 C   0  0
   -5.0706    0.7961    0.0000 C   0  0
   -5.6368    0.4571    0.0000 F   0  0
   -2.1434   -0.4125    0.0000 N   0  0
   -1.4290   -0.8250    0.0000 C   0  0
   -0.7144   -0.4125    0.0000 C   0  0
    0.0000   -0.8250    0.0000 C   0  0
    3.5703   -2.0678    0.0000 C   0  0
    4.2874   -1.6590    0.0000 O   0  0
    3.5679   -2.8933    0.0000 C   0  0
    4.1383   -3.2254    0.0000 F   0  0
    2.9952   -3.2214    0.0000 F   0  0
    4.7624   -1.9362    0.0000 H   0  0
   -2.8601    1.3737    0.0000 H   0  0
  1  2  1  0
  2  3  2  0
  3  4  1  0
  4  5  2  0
  4 25  1  0
  5  6  1  0
  6  7  2  0
  7  2  1  0
  7  8  1  0
  8  9  2  0
  9 10  1  0
 10 11  2  0
 11 12  1  0
 12 13  2  0
 13 14  1  0
 13 21  1  0
 14 15  1  0
 14 31  1  0
 15 16  2  0
 15 17  1  0
 17 18  1  0
 18 19  1  0
 19 17  1  0
 19 20  1  0
 21 22  2  0
 22 23  1  0
 23 11  1  0
 23 24  2  0
 24  8  1  0
 25 26  1  0
 25 27  1  0
 26 30  1  0
 27 28  1  0
 27 29  1  0
M  END
> <CMPD_CHEMBLID>
CHEMBL3689735

> <STANDARD_TYPE>
Ki

> <RELATION>
=

> <STANDARD_VALUE>
33.5

> <STANDARD_UNITS>
nM

> <Molecular_Weight>
401.38173

$$$$

  SciTegic11272012012D

 23 26  0  0  0  0            999 V2000
    0.8551   -1.9812    0.0000 O   0  0
    1.4273   -1.6521    0.0000 C   0  0
    1.4285   -0.8267    0.0000 N   0  0
    0.7144   -0.4125    0.0000 C   0  0
    0.7144    0.4125    0.0000 C   0  0
    0.0000    0.8250    0.0000 C   0  0
    0.0000    1.6500    0.0000 C   0  0
   -0.7145    2.0625    0.0000 C   0  0
   -1.4290    1.6500    0.0000 C   0  0
   -1.4290    0.8250    0.0000 C   0  0
   -0.7144    0.4125    0.0000 C   0  0
   -0.7144   -0.4125    0.0000 C   0  0
    0.0000   -0.8250    0.0000 N   0  0
   -2.1438    2.0627    0.0000 C   0  0
   -2.1452    2.8877    0.0000 C   0  0
   -2.8603    3.2991    0.0000 C   0  0
   -3.5741    2.8855    0.0000 N   0  0
   -3.5728    2.0605    0.0000 N   0  0
   -2.8576    1.6491    0.0000 C   0  0
    2.1413   -2.0663    0.0000 C   0  0
    2.5103   -2.7557    0.0000 C   0  0
    2.9228   -2.0412    0.0000 C   0  0
    1.9053   -0.5525    0.0000 H   0  0
  1  2  2  0
  2  3  1  0
  2 20  1  0
  3  4  1  0
  3 23  1  0
  4  5  2  0
  5  6  1  0
  6  7  2  0
  7  8  1  0
  8  9  2  0
  9 10  1  0
  9 14  1  0
 10 11  2  0
 11  6  1  0
 11 12  1  0
 12 13  2  0
 13  4  1  0
 14 15  2  0
 15 16  1  0
 16 17  2  0
 17 18  1  0
 18 19  2  0
 19 14  1  0
 20 21  1  0
 21 22  1  0
 22 20  1  0
M  END
> <CMPD_CHEMBLID>
CHEMBL3685136

> <STANDARD_TYPE>
Ki

> <RELATION>
=

> <STANDARD_VALUE>
34

> <STANDARD_UNITS>
nM

> <Molecular_Weight>
290.31926

$$$$

  SciTegic11272012012D

 29 32  0  0  0  0            999 V2000
    1.7349   -4.0752    0.0000 C   0  0
    1.6017   -3.4288    0.0000 C   0  0
    2.2172   -2.8808    0.0000 N   0  0
    3.0241   -3.0523    0.0000 N   0  0
    3.4366   -2.3379    0.0000 C   0  0
    2.8846   -1.7247    0.0000 C   0  0
    2.1413   -2.0663    0.0000 C   0  0
    1.4273   -1.6521    0.0000 C   0  0
    0.8551   -1.9812    0.0000 O   0  0
    1.4285   -0.8267    0.0000 N   0  0
    0.7144   -0.4125    0.0000 C   0  0
    0.7144    0.4125    0.0000 C   0  0
    0.0000    0.8250    0.0000 C   0  0
    0.0000    1.6500    0.0000 C   0  0
   -0.7145    2.0625    0.0000 C   0  0
   -1.4290    1.6500    0.0000 C   0  0
   -1.4290    0.8250    0.0000 C   0  0
   -0.7144    0.4125    0.0000 C   0  0
   -0.7144   -0.4125    0.0000 C   0  0
    0.0000   -0.8250    0.0000 N   0  0
   -2.1438    2.0627    0.0000 C   0  0
   -2.8576    1.6491    0.0000 C   0  0
   -3.5728    2.0605    0.0000 C   0  0
   -4.1438    1.7295    0.0000 F   0  0
   -3.5741    2.8855    0.0000 C   0  0
   -2.8603    3.2991    0.0000 C   0  0
   -2.1452    2.8877    0.0000 C   0  0
   -1.5741    3.2187    0.0000 C   0  0
    1.9053   -0.5525    0.0000 H   0  0
  1  2  1  0
  2  3  1  0
  3  4  1  0
  4  5  2  0
  5  6  1  0
  6  7  2  0
  7  3  1  0
  7  8  1  0
  8  9  2  0
  8 10  1  0
 10 11  1  0
 10 29  1  0
 11 12  2  0
 12 13  1  0
 13 14  2  0
 14 15  1  0
 15 16  2  0
 16 17  1  0
 16 21  1  0
 17 18  2  0
 18 13  1  0
 18 19  1  0
 19 20  2  0
 20 11  1  0
 21 22  2  0
 22 23  1  0
 23 24  1  0
 23 25  2  0
 25 26  1  0
 26 27  2  0
 27 21  1  0
 27 28  1  0
M  END
> <CMPD_CHEMBLID>
CHEMBL3685051

> <STANDARD_TYPE>
Ki

> <RELATION>
=

> <STANDARD_VALUE>
34.2

> <STANDARD_UNITS>
nM

> <Molecular_Weight>
374.41086

$$$$

  SciTegic11272012012D

 20 22  0  0  0  0            999 V2000
    2.1455    0.2461    0.0000 C   0  0
    2.1445   -0.4139    0.0000 C   0  0
    2.8583   -0.8275    0.0000 C   0  0
    2.8570   -1.6525    0.0000 C   0  0
    2.1419   -2.0639    0.0000 N   0  0
    1.4281   -1.6502    0.0000 C   0  0
    1.4293   -0.8252    0.0000 C   0  0
    0.7144   -0.4125    0.0000 C   0  0
    0.7144    0.4125    0.0000 C   0  0
    0.0000    0.8250    0.0000 C   0  0
   -0.7144    0.4125    0.0000 C   0  0
   -1.4290    0.8250    0.0000 C   0  0
   -2.1434    0.4125    0.0000 C   0  0
   -2.8591    0.8237    0.0000 N   0  0
   -2.1434   -0.4125    0.0000 N   0  0
   -1.4290   -0.8250    0.0000 C   0  0
   -0.7144   -0.4125    0.0000 C   0  0
    0.0000   -0.8250    0.0000 C   0  0
   -3.3350    0.5481    0.0000 H   0  0
   -2.8601    1.3737    0.0000 H   0  0
  1  2  1  0
  2  3  2  0
  3  4  1  0
  4  5  2  0
  5  6  1  0
  6  7  2  0
  7  2  1  0
  7  8  1  0
  8  9  2  0
  9 10  1  0
 10 11  2  0
 11 12  1  0
 12 13  2  0
 13 14  1  0
 13 15  1  0
 14 19  1  0
 14 20  1  0
 15 16  2  0
 16 17  1  0
 17 11  1  0
 17 18  2  0
 18  8  1  0
M  END
> <CMPD_CHEMBLID>
CHEMBL3689562

> <STANDARD_TYPE>
Ki

> <RELATION>
=

> <STANDARD_VALUE>
36

> <STANDARD_UNITS>
nM

> <Molecular_Weight>
235.28382

$$$$

  SciTegic11272012012D

 27 29  0  0  0  0            999 V2000
    4.1467   -0.7363    0.0000 C   0  0
    3.5744   -0.4075    0.0000 C   0  0
    2.8602   -0.8213    0.0000 N   0  0
    2.1444   -0.4100    0.0000 C   0  0
    2.1433    0.2500    0.0000 O   0  0
    1.4302   -0.8237    0.0000 N   0  0
    0.7144   -0.4125    0.0000 C   0  0
    0.7144    0.4125    0.0000 N   0  0
    0.0000    0.8250    0.0000 C   0  0
   -0.7144    0.4125    0.0000 C   0  0
   -1.4290    0.8250    0.0000 C   0  0
   -2.1434    0.4125    0.0000 C   0  0
   -2.1434   -0.4125    0.0000 C   0  0
   -1.4290   -0.8250    0.0000 C   0  0
   -0.7144   -0.4125    0.0000 C   0  0
    0.0000   -0.8250    0.0000 C   0  0
    0.0000   -1.4850    0.0000 Cl  0  0
   -2.8582    0.8252    0.0000 C   0  0
   -3.5721    0.4116    0.0000 C   0  0
   -4.2872    0.8230    0.0000 C   0  0
   -4.8583    0.4920    0.0000 F   0  0
   -4.2886    1.6480    0.0000 C   0  0
   -3.5747    2.0616    0.0000 C   0  0
   -2.8596    1.6502    0.0000 C   0  0
   -2.2885    1.9812    0.0000 C   0  0
    1.4312   -1.3737    0.0000 H   0  0
    2.8612   -1.3713    0.0000 H   0  0
  1  2  1  0
  2  3  1  0
  3  4  1  0
  3 27  1  0
  4  5  2  0
  4  6  1  0
  6  7  1  0
  6 26  1  0
  7  8  2  0
  8  9  1  0
  9 10  2  0
 10 11  1  0
 11 12  2  0
 12 13  1  0
 12 18  1  0
 13 14  2  0
 14 15  1  0
 15 10  1  0
 15 16  2  0
 16  7  1  0
 16 17  1  0
 18 19  2  0
 19 20  1  0
 20 21  1  0
 20 22  2  0
 22 23  1  0
 23 24  2  0
 24 18  1  0
 24 25  1  0
M  END
> <CMPD_CHEMBLID>
CHEMBL3685116

> <STANDARD_TYPE>
Ki

> <RELATION>
=

> <STANDARD_VALUE>
37

> <STANDARD_UNITS>
nM

> <Molecular_Weight>
357.80918

$$$$

  SciTegic11272012012D

 26 28  0  0  0  0            999 V2000
    2.5619   -3.0003    0.0000 C   0  0
    2.2308   -2.4294    0.0000 O   0  0
    1.4053   -2.4306    0.0000 C   0  0
    1.0763   -3.0028    0.0000 O   0  0
    0.9918   -1.7178    0.0000 C   0  0
    1.3273   -0.9642    0.0000 C   0  0
    0.7145   -0.4125    0.0000 C   0  0
    0.7145    0.4125    0.0000 C   0  0
    0.0000    0.8250    0.0000 C   0  0
   -0.0017    1.6505    0.0000 N   0  0
   -0.7172    2.0622    0.0000 C   0  0
   -1.2882    1.7312    0.0000 O   0  0
   -0.7189    2.8876    0.0000 C   0  0
   -1.4334    3.3002    0.0000 C   0  0
   -2.0049    2.9702    0.0000 Cl  0  0
   -1.4334    4.1252    0.0000 C   0  0
   -0.7189    4.5377    0.0000 C   0  0
   -0.0044    4.1252    0.0000 C   0  0
   -0.0044    3.3002    0.0000 C   0  0
    0.5672    2.9703    0.0000 Cl  0  0
   -0.7145    0.4125    0.0000 C   0  0
   -0.7145   -0.4125    0.0000 N   0  0
    0.0000   -0.8250    0.0000 C   0  0
    0.1713   -1.6316    0.0000 N   0  0
   -0.1967   -2.0403    0.0000 H   0  0
    0.4741    1.9263    0.0000 H   0  0
  1  2  1  0
  2  3  1  0
  3  4  2  0
  3  5  1  0
  5  6  2  0
  6  7  1  0
  7  8  2  0
  8  9  1  0
  9 10  1  0
  9 21  2  0
 10 11  1  0
 10 26  1  0
 11 12  2  0
 11 13  1  0
 13 14  2  0
 14 15  1  0
 14 16  1  0
 16 17  2  0
 17 18  1  0
 18 19  2  0
 19 13  1  0
 19 20  1  0
 21 22  1  0
 22 23  2  0
 23  7  1  0
 23 24  1  0
 24  5  1  0
 24 25  1  0
M  END
> <CMPD_CHEMBLID>
CHEMBL3347637

> <STANDARD_TYPE>
IC50

> <RELATION>
=

> <STANDARD_VALUE>
37

> <STANDARD_UNITS>
nM

> <Molecular_Weight>
364.18284

$$$$

  SciTegic11272012012D

 36 43  0  0  0  0            999 V2000
   -1.1419    3.4726    0.0000 C   0  0
   -1.5086    2.8609    0.0000 N   0  0
   -1.0758    2.0804    0.0000 C   0  0
   -0.1427    2.0922    0.0000 C   0  0
    0.2972    1.2958    0.0000 C   0  0
   -0.6301    1.2958    0.0000 O   0  0
   -1.0877    0.5528    0.0000 C   0  0
   -1.5751    1.3374    0.0000 C   0  0
   -2.4659    1.3618    0.0000 O   0  0
   -2.8057    1.9889    0.0000 C   0  0
   -0.5825   -0.4636    0.0000 N   0  0
   -1.2660   -0.8678    0.0000 C   0  0
   -1.9734   -0.4517    0.0000 C   0  0
   -2.7045   -0.8797    0.0000 C   0  0
   -2.7223   -1.6465    0.0000 C   0  0
   -1.9853   -2.0625    0.0000 C   0  0
   -1.2660   -1.6583    0.0000 C   0  0
    0.1427   -1.6465    0.0000 C   0  0
    0.8500   -2.0625    0.0000 C   0  0
    1.0461   -2.9541    0.0000 C   0  0
    1.9377   -3.0195    0.0000 N   0  0
    2.2884   -2.1576    0.0000 C   0  0
    2.9751   -1.9647    0.0000 O   0  0
    1.5811   -1.6346    0.0000 C   0  0
    1.5930   -0.8678    0.0000 C   0  0
    2.2527    0.3329    0.0000 C   0  0
    2.9482    0.7608    0.0000 C   0  0
    2.9482    1.5632    0.0000 C   0  0
    2.2646    1.9555    0.0000 C   0  0
    1.5692    1.5395    0.0000 C   0  0
    1.5692    0.7370    0.0000 C   0  0
    0.8856    0.3210    0.0000 N   0  0
    0.8619   -0.4517    0.0000 C   0  0
    0.1427   -0.8559    0.0000 C   0  0
    2.2512   -3.5245    0.0000 H   0  0
   -2.1029    2.8709    0.0000 H   0  0
  1  2  1  0
  2  3  1  0
  2 36  1  0
  3  4  1  0
  4  5  1  0
  5  6  1  0
  6  7  1  0
  7  8  1  0
  7 11  1  0
  8  3  1  0
  8  9  1  0
  9 10  1  0
 11 12  1  0
 12 13  2  0
 13 14  1  0
 14 15  2  0
 15 16  1  0
 16 17  2  0
 17 12  1  0
 17 18  1  0
 18 19  2  0
 19 20  1  0
 20 21  1  0
 21 22  1  0
 21 35  1  0
 22 23  2  0
 22 24  1  0
 24 19  1  0
 24 25  2  0
 25 26  1  0
 26 27  2  0
 27 28  1  0
 28 29  2  0
 29 30  1  0
 30 31  2  0
 31 26  1  0
 31 32  1  0
 32  5  1  0
 32 33  1  0
 33 25  1  0
 33 34  2  0
 34 11  1  0
 34 18  1  0
M  END
> <CMPD_CHEMBLID>
CHEMBL3683258

> <STANDARD_TYPE>
IC50

> <RELATION>
=

> <STANDARD_VALUE>
37.32

> <STANDARD_UNITS>
nM

> <Molecular_Weight>
452.50446

$$$$

  SciTegic11272012012D

 32 35  0  0  0  0            999 V2000
    0.2263   -4.5662    0.0000 C   0  0
   -0.4193   -4.4289    0.0000 C   0  0
   -0.9714   -5.0419    0.0000 C   0  0
   -1.7784   -4.8702    0.0000 C   0  0
   -2.0332   -4.0856    0.0000 C   0  0
   -1.4810   -3.4726    0.0000 C   0  0
   -0.6741   -3.6442    0.0000 C   0  0
   -0.1229   -3.0297    0.0000 C   0  0
   -0.3789   -2.2450    0.0000 C   0  0
    0.1713   -1.6316    0.0000 N   0  0
    0.9918   -1.7178    0.0000 C   0  0
    1.3273   -0.9641    0.0000 N   0  0
    0.7144   -0.4125    0.0000 C   0  0
    0.7144    0.4125    0.0000 C   0  0
    0.0000    0.8250    0.0000 N   0  0
   -0.7144    0.4125    0.0000 C   0  0
   -0.7144   -0.4125    0.0000 N   0  0
    0.0000   -0.8250    0.0000 C   0  0
   -2.8402   -3.9122    0.0000 C   0  0
   -3.2828   -4.4018    0.0000 O   0  0
   -3.0941   -3.1267    0.0000 N   0  0
   -3.9011   -2.9533    0.0000 C   0  0
   -4.1560   -2.1686    0.0000 C   0  0
   -4.9629   -1.9969    0.0000 C   0  0
   -5.5150   -2.6100    0.0000 C   0  0
   -5.2603   -3.3946    0.0000 C   0  0
   -4.4533   -3.5663    0.0000 N   0  0
   -5.2179   -1.2119    0.0000 C   0  0
   -4.7764   -0.7212    0.0000 F   0  0
   -5.8634   -1.0747    0.0000 F   0  0
   -5.4220   -0.5842    0.0000 F   0  0
   -2.7252   -2.7186    0.0000 H   0  0
  1  2  1  0
  2  3  2  0
  3  4  1  0
  4  5  2  0
  5  6  1  0
  5 19  1  0
  6  7  2  0
  7  2  1  0
  7  8  1  0
  8  9  2  0
  9 10  1  0
 10 11  1  0
 11 12  2  0
 12 13  1  0
 13 14  2  0
 14 15  1  0
 15 16  2  0
 16 17  1  0
 17 18  2  0
 18 10  1  0
 18 13  1  0
 19 20  2  0
 19 21  1  0
 21 22  1  0
 21 32  1  0
 22 23  2  0
 23 24  1  0
 24 25  2  0
 24 28  1  0
 25 26  1  0
 26 27  2  0
 27 22  1  0
 28 29  1  0
 28 30  1  0
 28 31  1  0
M  END
> <CMPD_CHEMBLID>
CHEMBL550281

> <STANDARD_TYPE>
IC50

> <RELATION>
=

> <STANDARD_VALUE>
38

> <STANDARD_UNITS>
nM

> <Molecular_Weight>
424.37861

$$$$

  SciTegic11272012012D

 27 30  0  0  0  0            999 V2000
    2.5619   -3.0003    0.0000 C   0  0
    2.2308   -2.4294    0.0000 O   0  0
    1.4053   -2.4306    0.0000 C   0  0
    1.0763   -3.0028    0.0000 O   0  0
    0.9918   -1.7178    0.0000 C   0  0
    1.3273   -0.9642    0.0000 C   0  0
    0.7145   -0.4125    0.0000 C   0  0
    0.7145    0.4125    0.0000 C   0  0
    0.0000    0.8250    0.0000 C   0  0
   -0.0017    1.6505    0.0000 N   0  0
   -0.7172    2.0622    0.0000 C   0  0
   -0.7189    2.8876    0.0000 C   0  0
   -1.4334    3.3002    0.0000 C   0  0
   -1.4334    4.1252    0.0000 C   0  0
   -0.7189    4.5377    0.0000 C   0  0
   -0.5476    5.3443    0.0000 N   0  0
    0.2729    5.4305    0.0000 C   0  0
    0.6084    4.6769    0.0000 C   0  0
   -0.0044    4.1252    0.0000 C   0  0
   -0.0044    3.3002    0.0000 C   0  0
   -0.7145    0.4125    0.0000 C   0  0
   -0.7145   -0.4125    0.0000 N   0  0
    0.0000   -0.8250    0.0000 C   0  0
    0.1713   -1.6316    0.0000 N   0  0
   -0.1967   -2.0403    0.0000 H   0  0
   -0.9157    5.7530    0.0000 H   0  0
    0.4741    1.9263    0.0000 H   0  0
  1  2  1  0
  2  3  1  0
  3  4  2  0
  3  5  1  0
  5  6  2  0
  6  7  1  0
  7  8  2  0
  8  9  1  0
  9 10  1  0
  9 21  2  0
 10 11  1  0
 10 27  1  0
 11 12  1  0
 12 13  2  0
 13 14  1  0
 14 15  2  0
 15 16  1  0
 16 17  1  0
 16 26  1  0
 17 18  2  0
 18 19  1  0
 19 15  1  0
 19 20  2  0
 20 12  1  0
 21 22  1  0
 22 23  2  0
 23  7  1  0
 23 24  1  0
 24  5  1  0
 24 25  1  0
M  END
> <CMPD_CHEMBLID>
CHEMBL3347419

> <STANDARD_TYPE>
IC50

> <RELATION>
=

> <STANDARD_VALUE>
39

> <STANDARD_UNITS>
nM

> <Molecular_Weight>
320.34524

$$$$

  SciTegic11272012012D

 28 31  0  0  0  0            999 V2000
    2.1455    0.2461    0.0000 C   0  0
    2.1445   -0.4139    0.0000 C   0  0
    2.8583   -0.8275    0.0000 C   0  0
    2.8570   -1.6525    0.0000 C   0  0
    2.1419   -2.0639    0.0000 C   0  0
    2.1408   -2.7239    0.0000 F   0  0
    1.4281   -1.6502    0.0000 C   0  0
    1.4293   -0.8252    0.0000 C   0  0
    0.7144   -0.4125    0.0000 C   0  0
    0.7144    0.4125    0.0000 C   0  0
    0.0000    0.8250    0.0000 C   0  0
   -0.7144    0.4125    0.0000 C   0  0
   -1.4290    0.8250    0.0000 C   0  0
   -2.1434    0.4125    0.0000 C   0  0
   -2.8591    0.8237    0.0000 N   0  0
   -3.5734    0.4100    0.0000 C   0  0
   -3.5722   -0.2500    0.0000 O   0  0
   -4.2891    0.8213    0.0000 C   0  0
   -5.0036    0.4088    0.0000 C   0  0
   -5.7181    0.8213    0.0000 C   0  0
   -5.7181    1.6463    0.0000 C   0  0
   -5.0037    2.0588    0.0000 C   0  0
   -4.2892    1.6463    0.0000 C   0  0
   -2.1434   -0.4125    0.0000 N   0  0
   -1.4290   -0.8250    0.0000 C   0  0
   -0.7144   -0.4125    0.0000 C   0  0
    0.0000   -0.8250    0.0000 C   0  0
   -2.8601    1.3737    0.0000 H   0  0
  1  2  1  0
  2  3  2  0
  3  4  1  0
  4  5  2  0
  5  6  1  0
  5  7  1  0
  7  8  2  0
  8  2  1  0
  8  9  1  0
  9 10  2  0
 10 11  1  0
 11 12  2  0
 12 13  1  0
 13 14  2  0
 14 15  1  0
 14 24  1  0
 15 16  1  0
 15 28  1  0
 16 17  2  0
 16 18  1  0
 18 19  1  0
 19 20  1  0
 20 21  1  0
 21 22  1  0
 22 23  1  0
 23 18  1  0
 24 25  2  0
 25 26  1  0
 26 12  1  0
 26 27  2  0
 27  9  1  0
M  END
> <CMPD_CHEMBLID>
CHEMBL3685004

> <STANDARD_TYPE>
Ki

> <RELATION>
=

> <STANDARD_VALUE>
39

> <STANDARD_UNITS>
nM

> <Molecular_Weight>
362.43992

$$$$

  SciTegic11272012012D

 40 44  0  0  0  0            999 V2000
   -5.4917   -2.3744    0.0000 C   0  0
   -5.3379   -3.0162    0.0000 C   0  0
   -5.9365   -3.5839    0.0000 C   0  0
   -5.7442   -4.3862    0.0000 C   0  0
   -4.9533   -4.6207    0.0000 C   0  0
   -4.3546   -4.0531    0.0000 C   0  0
   -3.5627   -4.2862    0.0000 N   0  0
   -2.9646   -3.7174    0.0000 C   0  0
   -3.1195   -3.0758    0.0000 O   0  0
   -2.1727   -3.9505    0.0000 N   0  0
   -1.5745   -3.3816    0.0000 C   0  0
   -0.7828   -3.6135    0.0000 C   0  0
   -0.1861   -3.0437    0.0000 C   0  0
   -0.3810   -2.2449    0.0000 C   0  0
   -1.1730   -2.0103    0.0000 C   0  0
   -1.7696   -2.5800    0.0000 C   0  0
    0.1713   -1.6316    0.0000 C   0  0
    0.9918   -1.7178    0.0000 C   0  0
    1.3273   -0.9641    0.0000 S   0  0
    0.7144   -0.4125    0.0000 C   0  0
    0.7144    0.4125    0.0000 C   0  0
    0.0000    0.8250    0.0000 C   0  0
   -0.7144    0.4125    0.0000 N   0  0
   -0.7144   -0.4125    0.0000 C   0  0
   -1.4302   -0.8238    0.0000 N   0  0
    0.0000   -0.8250    0.0000 C   0  0
    1.4293    0.8252    0.0000 C   0  0
    2.1442    1.2379    0.0000 C   0  0
    2.8590    1.6507    0.0000 C   0  0
    3.5741    1.2384    0.0000 N   0  0
    4.2893    1.6499    0.0000 C   0  0
    5.0031    1.2364    0.0000 C   0  0
    5.0020    0.4114    0.0000 O   0  0
    4.2869   -0.0001    0.0000 C   0  0
    3.5730    0.4134    0.0000 C   0  0
   -4.5469   -3.2508    0.0000 C   0  0
   -1.9061   -0.5481    0.0000 H   0  0
   -1.4311   -1.3738    0.0000 H   0  0
   -2.0436   -4.4851    0.0000 H   0  0
   -3.4336   -4.8208    0.0000 H   0  0
  1  2  1  0
  2  3  2  0
  3  4  1  0
  4  5  2  0
  5  6  1  0
  6  7  1  0
  6 36  2  0
  7  8  1  0
  7 40  1  0
  8  9  2  0
  8 10  1  0
 10 11  1  0
 10 39  1  0
 11 12  2  0
 12 13  1  0
 13 14  2  0
 14 15  1  0
 14 17  1  0
 15 16  2  0
 16 11  1  0
 17 18  2  0
 18 19  1  0
 19 20  1  0
 20 21  2  0
 21 22  1  0
 21 27  1  0
 22 23  2  0
 23 24  1  0
 24 25  1  0
 24 26  2  0
 25 37  1  0
 25 38  1  0
 26 17  1  0
 26 20  1  0
 27 28  3  0
 28 29  1  0
 29 30  1  0
 30 31  1  0
 31 32  1  0
 32 33  1  0
 33 34  1  0
 34 35  1  0
 35 30  1  0
 36  2  1  0
M  END
> <CMPD_CHEMBLID>
CHEMBL1982465

> <STANDARD_TYPE>
Ki

> <RELATION>
=

> <STANDARD_VALUE>
39.81

> <STANDARD_UNITS>
nM

> <Molecular_Weight>
497.61128

$$$$

  SciTegic11272012012D

 37 41  0  0  0  0            999 V2000
   -0.4307    3.8915    0.0000 C   0  0
   -0.9565    3.4927    0.0000 N   0  0
   -1.7170    3.8127    0.0000 C   0  0
   -2.3744    3.3143    0.0000 C   0  0
   -2.2714    2.4956    0.0000 N   0  0
   -1.5109    2.1756    0.0000 C   0  0
   -0.8535    2.6741    0.0000 C   0  0
   -2.9283    1.9958    0.0000 C   0  0
   -3.6892    2.3146    0.0000 C   0  0
   -4.3458    1.8151    0.0000 C   0  0
   -4.2415    0.9966    0.0000 C   0  0
   -4.8974    0.4955    0.0000 N   0  0
   -4.7919   -0.3232    0.0000 C   0  0
   -5.4468   -0.8251    0.0000 N   0  0
   -5.3396   -1.6431    0.0000 C   0  0
   -4.5775   -1.9593    0.0000 C   0  0
   -4.4918   -2.6137    0.0000 F   0  0
   -3.9227   -1.4575    0.0000 C   0  0
   -3.1596   -1.7723    0.0000 N   0  0
   -2.5096   -1.2728    0.0000 C   0  0
   -1.7771   -1.0687    0.0000 C   0  0
   -1.7771    0.2162    0.0000 C   0  0
   -1.3449   -0.4203    0.0000 C   0  0
   -0.6725   -0.6124    0.0000 C   0  0
   -1.0447   -1.2728    0.0000 C   0  0
   -2.1254   -0.6124    0.0000 C   0  0
   -2.6345    0.0400    0.0000 C   0  0
   -2.3869    0.6518    0.0000 O   0  0
   -3.4521   -0.0741    0.0000 N   0  0
   -4.0299   -0.6395    0.0000 N   0  0
   -3.4805    0.6778    0.0000 C   0  0
   -2.8240    1.1774    0.0000 C   0  0
   -2.2152    0.9223    0.0000 C   0  0
   -3.7906    0.3593    0.0000 H   0  0
   -3.6584   -0.5840    0.0000 H   0  0
   -3.0872   -2.3176    0.0000 H   0  0
   -5.4051    0.7072    0.0000 H   0  0
  1  2  1  0
  2  3  1  0
  3  4  1  0
  4  5  1  0
  5  6  1  0
  5  8  1  0
  6  7  1  0
  7  2  1  0
  8  9  2  0
  9 10  1  0
 10 11  2  0
 11 12  1  0
 11 31  1  0
 12 13  1  0
 12 37  1  0
 13 14  2  0
 14 15  1  0
 15 16  2  0
 16 17  1  0
 16 18  1  0
 18 19  1  0
 18 30  2  0
 19 20  1  0
 19 36  1  0
 20 21  1  0
 21 22  1  0
 22 23  1  0
 23 24  1  0
 23 26  1  0
 24 25  2  0
 25 21  1  0
 26 20  1  0
 26 27  1  0
 27 28  2  0
 27 29  1  0
 29 34  1  0
 29 35  1  0
 30 13  1  0
 31 32  2  0
 32  8  1  0
 32 33  1  0
M  END
> <CMPD_CHEMBLID>
CHEMBL1967878

> <STANDARD_TYPE>
Ki

> <RELATION>
=

> <STANDARD_VALUE>
39.81

> <STANDARD_UNITS>
nM

> <Molecular_Weight>
451.5397

$$$$

  SciTegic11272012012D

 38 42  0  0  0  0            999 V2000
    3.4280   -1.9834    0.0000 C   0  0
    2.8570   -1.6525    0.0000 C   0  0
    2.8583   -0.8275    0.0000 C   0  0
    2.1445   -0.4139    0.0000 C   0  0
    1.4293   -0.8252    0.0000 C   0  0
    1.4281   -1.6502    0.0000 C   0  0
    2.1419   -2.0639    0.0000 N   0  0
    0.7144   -0.4125    0.0000 C   0  0
    0.7144    0.4125    0.0000 C   0  0
    0.0000    0.8250    0.0000 N   0  0
   -0.7144    0.4125    0.0000 C   0  0
   -1.4285    0.8267    0.0000 N   0  0
   -0.7144   -0.4125    0.0000 C   0  0
   -1.3273   -0.9641    0.0000 C   0  0
   -0.9918   -1.7178    0.0000 C   0  0
   -0.1713   -1.6316    0.0000 S   0  0
    0.0000   -0.8250    0.0000 C   0  0
   -2.1347   -0.7924    0.0000 C   0  0
   -2.4465   -0.0316    0.0000 C   0  0
   -3.2640    0.0788    0.0000 C   0  0
   -3.7684   -0.5741    0.0000 C   0  0
   -4.5867   -0.4654    0.0000 N   0  0
   -5.0904   -1.1194    0.0000 C   0  0
   -4.8387   -1.7295    0.0000 O   0  0
   -5.9086   -1.0107    0.0000 N   0  0
   -6.4123   -1.6646    0.0000 C   0  0
   -7.2303   -1.5572    0.0000 C   0  0
   -7.7324   -2.2118    0.0000 C   0  0
   -7.4165   -2.9739    0.0000 C   0  0
   -6.5985   -3.0814    0.0000 C   0  0
   -6.3458   -3.6912    0.0000 F   0  0
   -6.0964   -2.4268    0.0000 C   0  0
   -3.4552   -1.3373    0.0000 C   0  0
   -2.6375   -1.4477    0.0000 C   0  0
   -6.1183   -0.5022    0.0000 H   0  0
   -4.7964    0.0430    0.0000 H   0  0
   -1.4277    1.3767    0.0000 H   0  0
   -1.9053    0.5525    0.0000 H   0  0
  1  2  1  0
  2  3  2  0
  3  4  1  0
  4  5  2  0
  5  6  1  0
  5  8  1  0
  6  7  2  0
  7  2  1  0
  8  9  2  0
  9 10  1  0
 10 11  2  0
 11 12  1  0
 11 13  1  0
 12 37  1  0
 12 38  1  0
 13 14  1  0
 14 15  2  0
 14 18  1  0
 15 16  1  0
 16 17  1  0
 17  8  1  0
 17 13  2  0
 18 19  2  0
 19 20  1  0
 20 21  2  0
 21 22  1  0
 21 33  1  0
 22 23  1  0
 22 36  1  0
 23 24  2  0
 23 25  1  0
 25 26  1  0
 25 35  1  0
 26 27  2  0
 27 28  1  0
 28 29  2  0
 29 30  1  0
 30 31  1  0
 30 32  2  0
 32 26  1  0
 33 34  2  0
 34 18  1  0
M  END
> <CMPD_CHEMBLID>
CHEMBL1988075

> <STANDARD_TYPE>
Ki

> <RELATION>
=

> <STANDARD_VALUE>
39.81

> <STANDARD_UNITS>
nM

> <Molecular_Weight>
469.5333

$$$$

  SciTegic11272012012D

 42 46  0  0  0  0            999 V2000
    3.4216    4.7490    0.0000 C   0  0
    4.0775    4.8221    0.0000 C   0  0
    4.3419    5.4268    0.0000 C   0  0
    3.6861    5.3535    0.0000 C   0  0
    4.5664    4.1588    0.0000 C   0  0
    4.3170    3.3724    0.0000 C   0  0
    4.9877    2.9042    0.0000 C   0  0
    4.9917    2.0787    0.0000 N   0  0
    4.2791    1.6621    0.0000 C   0  0
    3.7059    1.9891    0.0000 O   0  0
    4.2832    0.8366    0.0000 N   0  0
    3.5706    0.4200    0.0000 C   0  0
    3.5735   -0.4050    0.0000 C   0  0
    2.8604   -0.8200    0.0000 C   0  0
    2.1445   -0.4100    0.0000 C   0  0
    1.4302   -0.8237    0.0000 N   0  0
    0.7145   -0.4125    0.0000 C   0  0
    0.7145    0.4125    0.0000 N   0  0
    0.0000    0.8250    0.0000 C   0  0
   -0.7145    0.4125    0.0000 N   0  0
   -0.7145   -0.4125    0.0000 C   0  0
   -1.4290   -0.8250    0.0000 C   0  0
   -1.4290   -1.6500    0.0000 C   0  0
   -0.7145   -2.0625    0.0000 C   0  0
    0.0000   -1.6500    0.0000 C   0  0
    0.0000   -0.8250    0.0000 C   0  0
    2.1417    0.4150    0.0000 C   0  0
    2.8547    0.8300    0.0000 C   0  0
    5.6518    3.3817    0.0000 N   0  0
    5.3914    4.1646    0.0000 N   0  0
    6.4371    3.1274    0.0000 C   0  0
    6.6716    2.3395    0.0000 C   0  0
    7.4742    2.1484    0.0000 C   0  0
    8.0409    2.7480    0.0000 C   0  0
    7.8051    3.5385    0.0000 C   0  0
    8.3709    4.1396    0.0000 N   0  0
    7.0025    3.7296    0.0000 C   0  0
    8.2129    4.6664    0.0000 H   0  0
    8.9062    4.0131    0.0000 H   0  0
    1.4312   -1.3737    0.0000 H   0  0
    4.7609    0.5641    0.0000 H   0  0
    5.4694    1.8062    0.0000 H   0  0
  1  2  1  0
  2  3  1  0
  2  4  1  0
  2  5  1  0
  5  6  1  0
  6  7  2  0
  7  8  1  0
  7 29  1  0
  8  9  1  0
  8 42  1  0
  9 10  2  0
  9 11  1  0
 11 12  1  0
 11 41  1  0
 12 13  2  0
 13 14  1  0
 14 15  2  0
 15 16  1  0
 15 27  1  0
 16 17  1  0
 16 40  1  0
 17 18  2  0
 18 19  1  0
 19 20  2  0
 20 21  1  0
 21 22  2  0
 22 23  1  0
 23 24  2  0
 24 25  1  0
 25 26  2  0
 26 17  1  0
 26 21  1  0
 27 28  2  0
 28 12  1  0
 29 30  1  0
 29 31  1  0
 30  5  2  0
 31 32  2  0
 32 33  1  0
 33 34  2  0
 34 35  1  0
 35 36  1  0
 35 37  2  0
 36 38  1  0
 36 39  1  0
 37 31  1  0
M  END
> <CMPD_CHEMBLID>
CHEMBL2403816

> <STANDARD_TYPE>
IC50

> <RELATION>
=

> <STANDARD_VALUE>
40

> <STANDARD_UNITS>
nM

> <Molecular_Weight>
492.57492

$$$$

  SciTegic11272012012D

 40 44  0  0  0  0            999 V2000
    4.9901   -5.2094    0.0000 C   0  0
    4.9921   -4.5494    0.0000 C   0  0
    5.5648   -4.2213    0.0000 C   0  0
    4.2787   -4.1341    0.0000 C   0  0
    4.2812   -3.3086    0.0000 O   0  0
    3.5679   -2.8933    0.0000 C   0  0
    2.9952   -3.2214    0.0000 O   0  0
    3.5703   -2.0678    0.0000 N   0  0
    2.8570   -1.6525    0.0000 C   0  0
    2.8583   -0.8275    0.0000 C   0  0
    2.1445   -0.4139    0.0000 C   0  0
    1.4293   -0.8252    0.0000 C   0  0
    1.4281   -1.6502    0.0000 C   0  0
    2.1419   -2.0639    0.0000 C   0  0
    0.7144   -0.4125    0.0000 C   0  0
    0.7144    0.4125    0.0000 C   0  0
    0.0000    0.8250    0.0000 N   0  0
   -0.7144    0.4125    0.0000 C   0  0
   -1.4986    0.6674    0.0000 C   0  0
   -1.9836    0.0000    0.0000 C   0  0
   -1.4986   -0.6674    0.0000 N   0  0
   -0.7144   -0.4125    0.0000 N   0  0
    0.0000   -0.8250    0.0000 C   0  0
    0.0017   -1.6504    0.0000 N   0  0
   -1.7536    1.4524    0.0000 C   0  0
   -1.2506    2.1029    0.0000 C   0  0
   -1.5638    2.8661    0.0000 C   0  0
   -2.3814    2.9764    0.0000 C   0  0
   -2.8857    2.3236    0.0000 C   0  0
   -2.5725    1.5604    0.0000 C   0  0
   -2.6948    3.7401    0.0000 N   0  0
   -2.1915    4.3938    0.0000 C   0  0
   -2.5060    5.1565    0.0000 C   0  0
   -3.3237    5.2655    0.0000 N   0  0
   -3.5753    5.8757    0.0000 C   0  0
   -3.8270    4.6119    0.0000 C   0  0
   -3.5126    3.8491    0.0000 C   0  0
    0.4784   -1.9248    0.0000 H   0  0
   -0.4742   -1.9263    0.0000 H   0  0
    4.0476   -1.7944    0.0000 H   0  0
  1  2  1  0
  2  3  1  0
  2  4  1  0
  4  5  1  0
  5  6  1  0
  6  7  2  0
  6  8  1  0
  8  9  1  0
  8 40  1  0
  9 10  2  0
 10 11  1  0
 11 12  2  0
 12 13  1  0
 12 15  1  0
 13 14  2  0
 14  9  1  0
 15 16  1  0
 16 17  2  0
 17 18  1  0
 18 19  2  0
 19 20  1  0
 19 25  1  0
 20 21  2  0
 21 22  1  0
 22 18  1  0
 22 23  1  0
 23 15  2  0
 23 24  1  0
 24 38  1  0
 24 39  1  0
 25 26  2  0
 26 27  1  0
 27 28  2  0
 28 29  1  0
 28 31  1  0
 29 30  2  0
 30 25  1  0
 31 32  1  0
 32 33  1  0
 33 34  1  0
 34 35  1  0
 34 36  1  0
 36 37  1  0
 37 31  1  0
M  END
> <CMPD_CHEMBLID>
CHEMBL1085511

> <STANDARD_TYPE>
IC50

> <RELATION>
=

> <STANDARD_VALUE>
40

> <STANDARD_UNITS>
nM

> <Molecular_Weight>
499.60732

$$$$

  SciTegic11272012012D

 28 31  0  0  0  0            999 V2000
    3.5747   -2.7187    0.0000 F   0  0
    3.5747   -2.0587    0.0000 C   0  0
    4.2891   -1.6462    0.0000 C   0  0
    4.2891   -0.8213    0.0000 C   0  0
    3.5746   -0.4088    0.0000 C   0  0
    2.8601   -0.8213    0.0000 C   0  0
    2.1444   -0.4100    0.0000 C   0  0
    1.4301   -0.8237    0.0000 N   0  0
    0.7144   -0.4125    0.0000 C   0  0
    0.7144    0.4125    0.0000 N   0  0
    0.0000    0.8250    0.0000 C   0  0
   -0.7144    0.4125    0.0000 N   0  0
   -0.7144   -0.4125    0.0000 C   0  0
    0.0000   -0.8250    0.0000 C   0  0
   -0.1713   -1.6316    0.0000 C   0  0
   -0.9917   -1.7178    0.0000 N   0  0
   -1.3273   -0.9641    0.0000 N   0  0
   -2.1336   -0.7943    0.0000 C   0  0
   -2.6852   -1.4084    0.0000 C   0  0
   -2.4803   -2.0358    0.0000 Cl  0  0
   -3.4930   -1.2383    0.0000 C   0  0
   -4.0451   -1.8513    0.0000 C   0  0
   -4.8520   -1.6797    0.0000 C   0  0
   -5.1069   -0.8950    0.0000 C   0  0
   -4.5548   -0.2820    0.0000 C   0  0
   -3.7478   -0.4536    0.0000 C   0  0
    2.8602   -1.6463    0.0000 C   0  0
    1.4311   -1.3737    0.0000 H   0  0
  1  2  1  0
  2  3  2  0
  3  4  1  0
  4  5  2  0
  5  6  1  0
  6  7  1  0
  6 27  2  0
  7  8  1  0
  8  9  1  0
  8 28  1  0
  9 10  2  0
 10 11  1  0
 11 12  2  0
 12 13  1  0
 13 14  2  0
 14  9  1  0
 14 15  1  0
 15 16  2  0
 16 17  1  0
 17 13  1  0
 17 18  1  0
 18 19  1  0
 19 20  1  0
 19 21  1  0
 21 22  2  0
 22 23  1  0
 23 24  2  0
 24 25  1  0
 25 26  2  0
 26 21  1  0
 27  2  1  0
M  END
> <CMPD_CHEMBLID>
CHEMBL412298

> <STANDARD_TYPE>
Ki

> <RELATION>
=

> <STANDARD_VALUE>
40

> <STANDARD_UNITS>
nM

> <Molecular_Weight>
381.83388

$$$$

  SciTegic11272012012D

 32 36  0  0  0  0            999 V2000
    2.1455    0.2461    0.0000 C   0  0
    2.1445   -0.4139    0.0000 C   0  0
    2.8583   -0.8275    0.0000 C   0  0
    2.8570   -1.6525    0.0000 C   0  0
    2.1419   -2.0639    0.0000 C   0  0
    1.4281   -1.6502    0.0000 C   0  0
    1.4293   -0.8252    0.0000 C   0  0
    0.7144   -0.4125    0.0000 C   0  0
    0.7144    0.4125    0.0000 C   0  0
    0.0000    0.8250    0.0000 C   0  0
   -0.7144    0.4125    0.0000 C   0  0
   -1.4290    0.8250    0.0000 C   0  0
   -2.1434    0.4125    0.0000 C   0  0
   -2.8591    0.8237    0.0000 N   0  0
   -3.5734    0.4100    0.0000 C   0  0
   -3.5722   -0.2500    0.0000 O   0  0
   -4.2891    0.8213    0.0000 C   0  0
   -5.0706    0.7961    0.0000 C   0  0
   -4.6581    1.5106    0.0000 C   0  0
   -2.1434   -0.4125    0.0000 N   0  0
   -1.4290   -0.8250    0.0000 C   0  0
   -0.7144   -0.4125    0.0000 C   0  0
    0.0000   -0.8250    0.0000 C   0  0
    2.1388   -2.8893    0.0000 C   0  0
    2.7094   -3.2212    0.0000 O   0  0
    1.4227   -3.2999    0.0000 N   0  0
    1.4186   -4.1249    0.0000 C   0  0
    0.7020   -4.5338    0.0000 C   0  0
   -0.0104   -4.1177    0.0000 O   0  0
   -0.0062   -3.2927    0.0000 C   0  0
    0.7103   -2.8838    0.0000 C   0  0
   -2.8601    1.3737    0.0000 H   0  0
  1  2  1  0
  2  3  2  0
  3  4  1  0
  4  5  2  0
  5  6  1  0
  5 24  1  0
  6  7  2  0
  7  2  1  0
  7  8  1  0
  8  9  2  0
  9 10  1  0
 10 11  2  0
 11 12  1  0
 12 13  2  0
 13 14  1  0
 13 20  1  0
 14 15  1  0
 14 32  1  0
 15 16  2  0
 15 17  1  0
 17 18  1  0
 18 19  1  0
 19 17  1  0
 20 21  2  0
 21 22  1  0
 22 11  1  0
 22 23  2  0
 23  8  1  0
 24 25  2  0
 24 26  1  0
 26 27  1  0
 27 28  1  0
 28 29  1  0
 29 30  1  0
 30 31  1  0
 31 26  1  0
M  END
> <CMPD_CHEMBLID>
CHEMBL3689617

> <STANDARD_TYPE>
Ki

> <RELATION>
=

> <STANDARD_VALUE>
40

> <STANDARD_UNITS>
nM

> <Molecular_Weight>
415.4843

$$$$

  SciTegic11272012012D

 32 35  0  0  0  0            999 V2000
    1.2861   -0.7425    0.0000 C   0  0
    0.7144   -0.4125    0.0000 N   0  0
    0.7144    0.4125    0.0000 C   0  0
    1.2861    0.7425    0.0000 O   0  0
    0.0000    0.8250    0.0000 C   0  0
   -0.7144    0.4125    0.0000 C   0  0
   -0.7144   -0.4125    0.0000 C   0  0
   -1.4290   -0.8250    0.0000 C   0  0
   -1.4290   -1.6500    0.0000 N   0  0
   -0.7144   -2.0625    0.0000 C   0  0
   -0.7127   -2.8879    0.0000 N   0  0
    0.0027   -3.2997    0.0000 C   0  0
    0.0044   -4.1251    0.0000 C   0  0
    0.7188   -4.5377    0.0000 C   0  0
    0.7189   -5.3627    0.0000 C   0  0
    0.0045   -5.7752    0.0000 C   0  0
   -0.7100   -5.3627    0.0000 C   0  0
   -1.4258   -5.7740    0.0000 N   0  0
   -0.7100   -4.5377    0.0000 C   0  0
    0.0000   -1.6500    0.0000 N   0  0
    0.0000   -0.8250    0.0000 C   0  0
    0.0000    1.6504    0.0000 C   0  0
    0.7138    2.0641    0.0000 C   0  0
    1.2859    1.7350    0.0000 F   0  0
    0.7125    2.8891    0.0000 C   0  0
   -0.0026    3.3005    0.0000 C   0  0
   -0.7164    2.8868    0.0000 C   0  0
   -0.7151    2.0618    0.0000 C   0  0
   -1.2862    1.7310    0.0000 F   0  0
   -1.9017   -5.4983    0.0000 H   0  0
   -1.4267   -6.3240    0.0000 H   0  0
   -1.1886   -3.1638    0.0000 H   0  0
  1  2  1  0
  2  3  1  0
  3  4  2  0
  3  5  1  0
  5  6  2  0
  5 22  1  0
  6  7  1  0
  7  8  2  0
  8  9  1  0
  9 10  2  0
 10 11  1  0
 10 20  1  0
 11 12  1  0
 11 32  1  0
 12 13  1  0
 13 14  2  0
 14 15  1  0
 15 16  2  0
 16 17  1  0
 17 18  1  0
 17 19  2  0
 18 30  1  0
 18 31  1  0
 19 13  1  0
 20 21  2  0
 21  2  1  0
 21  7  1  0
 22 23  2  0
 23 24  1  0
 23 25  1  0
 25 26  2  0
 26 27  1  0
 27 28  2  0
 28 22  1  0
 28 29  1  0
M  END
> <CMPD_CHEMBLID>
CHEMBL1223411

> <STANDARD_TYPE>
Ki

> <RELATION>
=

> <STANDARD_VALUE>
40

> <STANDARD_UNITS>
nM

> <Molecular_Weight>
393.38939

$$$$

  SciTegic11272012012D

 31 34  0  0  0  0            999 V2000
    1.2861   -0.7425    0.0000 C   0  0
    0.7144   -0.4125    0.0000 N   0  0
    0.7144    0.4125    0.0000 C   0  0
    1.2861    0.7425    0.0000 O   0  0
    0.0000    0.8250    0.0000 C   0  0
   -0.7144    0.4125    0.0000 C   0  0
   -0.7144   -0.4125    0.0000 C   0  0
   -1.4290   -0.8250    0.0000 C   0  0
   -1.4290   -1.6500    0.0000 N   0  0
   -0.7144   -2.0625    0.0000 C   0  0
   -0.7127   -2.8879    0.0000 N   0  0
    0.0027   -3.2997    0.0000 C   0  0
    0.0044   -4.1251    0.0000 C   0  0
    0.7188   -4.5377    0.0000 C   0  0
    0.7189   -5.3627    0.0000 C   0  0
    0.0045   -5.7752    0.0000 C   0  0
   -0.7100   -5.3627    0.0000 C   0  0
   -1.4258   -5.7740    0.0000 N   0  0
   -0.7100   -4.5377    0.0000 C   0  0
    0.0000   -1.6500    0.0000 N   0  0
    0.0000   -0.8250    0.0000 C   0  0
    0.0000    1.6504    0.0000 C   0  0
   -0.7151    2.0618    0.0000 C   0  0
   -0.7164    2.8868    0.0000 C   0  0
   -0.0026    3.3005    0.0000 C   0  0
    0.7125    2.8891    0.0000 C   0  0
    0.7138    2.0641    0.0000 C   0  0
    1.2859    1.7350    0.0000 Br  0  0
   -1.9017   -5.4983    0.0000 H   0  0
   -1.4267   -6.3240    0.0000 H   0  0
   -1.1886   -3.1638    0.0000 H   0  0
  1  2  1  0
  2  3  1  0
  3  4  2  0
  3  5  1  0
  5  6  2  0
  5 22  1  0
  6  7  1  0
  7  8  2  0
  8  9  1  0
  9 10  2  0
 10 11  1  0
 10 20  1  0
 11 12  1  0
 11 31  1  0
 12 13  1  0
 13 14  2  0
 14 15  1  0
 15 16  2  0
 16 17  1  0
 17 18  1  0
 17 19  2  0
 18 29  1  0
 18 30  1  0
 19 13  1  0
 20 21  2  0
 21  2  1  0
 21  7  1  0
 22 23  2  0
 23 24  1  0
 24 25  2  0
 25 26  1  0
 26 27  2  0
 27 22  1  0
 27 28  1  0
M  END
> <CMPD_CHEMBLID>
CHEMBL1223412

> <STANDARD_TYPE>
Ki

> <RELATION>
=

> <STANDARD_VALUE>
40

> <STANDARD_UNITS>
nM

> <Molecular_Weight>
436.30452

$$$$

  SciTegic11272012012D

 30 33  0  0  0  0            999 V2000
    1.9982   -1.9833    0.0000 C   0  0
    1.4273   -1.6521    0.0000 C   0  0
    1.4285   -0.8267    0.0000 S   0  0
    0.7144   -0.4125    0.0000 C   0  0
    0.7144    0.4125    0.0000 N   0  0
    0.0000    0.8250    0.0000 C   0  0
    0.0017    1.6504    0.0000 N   0  0
    0.7171    2.0622    0.0000 C   0  0
    0.7201    2.8872    0.0000 C   0  0
    1.4359    3.2972    0.0000 C   0  0
    2.1489    2.8823    0.0000 C   0  0
    2.1461    2.0573    0.0000 C   0  0
    2.7165    1.7253    0.0000 Cl  0  0
    1.4302    1.6472    0.0000 C   0  0
   -0.7144    0.4125    0.0000 C   0  0
   -1.4986    0.6674    0.0000 C   0  0
   -1.9836    0.0000    0.0000 N   0  0
   -1.4986   -0.6674    0.0000 N   0  0
   -1.7547   -1.4507    0.0000 C   0  0
   -2.5623   -1.6213    0.0000 C   0  0
   -3.0032   -1.1301    0.0000 Cl  0  0
   -2.8189   -2.4059    0.0000 C   0  0
   -3.6259   -2.5776    0.0000 C   0  0
   -3.8807   -3.3622    0.0000 C   0  0
   -3.3285   -3.9752    0.0000 C   0  0
   -2.5216   -3.8036    0.0000 C   0  0
   -2.2668   -3.0189    0.0000 C   0  0
   -0.7144   -0.4125    0.0000 C   0  0
    0.0000   -0.8250    0.0000 N   0  0
   -0.4742    1.9263    0.0000 H   0  0
  1  2  1  0
  2  3  1  0
  3  4  1  0
  4  5  2  0
  5  6  1  0
  6  7  1  0
  6 15  2  0
  7  8  1  0
  7 30  1  0
  8  9  2  0
  9 10  1  0
 10 11  2  0
 11 12  1  0
 12 13  1  0
 12 14  2  0
 14  8  1  0
 15 16  1  0
 16 17  2  0
 17 18  1  0
 18 19  1  0
 18 28  1  0
 19 20  1  0
 20 21  1  0
 20 22  1  0
 22 23  2  0
 23 24  1  0
 24 25  2  0
 25 26  1  0
 26 27  2  0
 27 22  1  0
 28 15  1  0
 28 29  2  0
 29  4  1  0
M  END
> <CMPD_CHEMBLID>
CHEMBL428029

> <STANDARD_TYPE>
Ki

> <RELATION>
=

> <STANDARD_VALUE>
40

> <STANDARD_UNITS>
nM

> <Molecular_Weight>
444.38006

$$$$

  SciTegic11272012012D

 35 38  0  0  0  0            999 V2000
    1.2861   -0.7425    0.0000 C   0  0
    0.7144   -0.4125    0.0000 C   0  0
    0.7144    0.4125    0.0000 C   0  0
    0.0000    0.8250    0.0000 C   0  0
   -0.7144    0.4125    0.0000 C   0  0
   -1.4302    0.8237    0.0000 N   0  0
   -2.1444    0.4100    0.0000 C   0  0
   -2.1433   -0.2500    0.0000 O   0  0
   -2.8602    0.8213    0.0000 C   0  0
   -3.5747    0.4088    0.0000 C   0  0
   -4.2892    0.8213    0.0000 C   0  0
   -4.2892    1.6463    0.0000 C   0  0
   -5.0049    2.0575    0.0000 C   0  0
   -5.7192    1.6437    0.0000 N   0  0
   -6.4636    1.9827    0.0000 C   0  0
   -7.0135    1.3676    0.0000 C   0  0
   -6.5985    0.6546    0.0000 N   0  0
   -5.7922    0.8290    0.0000 C   0  0
   -3.5747    2.0588    0.0000 C   0  0
   -2.8602    1.6463    0.0000 C   0  0
   -3.5747    2.8842    0.0000 C   0  0
   -4.1461    3.2146    0.0000 F   0  0
   -3.0031    3.2140    0.0000 F   0  0
   -3.5744    3.5442    0.0000 F   0  0
   -0.7144   -0.4125    0.0000 C   0  0
    0.0000   -0.8250    0.0000 C   0  0
    0.0000   -1.6504    0.0000 C   0  0
    0.0000   -2.4759    0.0000 C   0  0
    0.0000   -3.3014    0.0000 C   0  0
   -0.7144   -3.7139    0.0000 C   0  0
   -0.7144   -4.5389    0.0000 N   0  0
    0.0000   -4.9514    0.0000 C   0  0
    0.7145   -4.5389    0.0000 N   0  0
    0.7145   -3.7139    0.0000 C   0  0
   -1.4312    1.3737    0.0000 H   0  0
  1  2  1  0
  2  3  2  0
  3  4  1  0
  4  5  2  0
  5  6  1  0
  5 25  1  0
  6  7  1  0
  6 35  1  0
  7  8  2  0
  7  9  1  0
  9 10  2  0
 10 11  1  0
 11 12  2  0
 12 13  1  0
 12 19  1  0
 13 14  1  0
 14 15  1  0
 15 16  2  0
 16 17  1  0
 17 18  2  0
 18 14  1  0
 19 20  2  0
 19 21  1  0
 20  9  1  0
 21 22  1  0
 21 23  1  0
 21 24  1  0
 25 26  2  0
 26  2  1  0
 26 27  1  0
 27 28  3  0
 28 29  1  0
 29 30  2  0
 30 31  1  0
 31 32  2  0
 32 33  1  0
 33 34  2  0
 34 29  1  0
M  END
> <CMPD_CHEMBLID>
CHEMBL2324932

> <STANDARD_TYPE>
IC50

> <RELATION>
=

> <STANDARD_VALUE>
40

> <STANDARD_UNITS>
nM

> <Molecular_Weight>
461.43853

$$$$

  SciTegic11272012012D

 37 40  0  0  0  0            999 V2000
    1.2861   -0.7425    0.0000 C   0  0
    0.7144   -0.4125    0.0000 N   0  0
    0.7144    0.4125    0.0000 C   0  0
    0.0000    0.8250    0.0000 C   0  0
   -0.7144    0.4125    0.0000 N   0  0
   -1.4302    0.8237    0.0000 C   0  0
   -2.1444    0.4100    0.0000 C   0  0
   -2.1416   -0.4150    0.0000 C   0  0
   -2.8546   -0.8300    0.0000 C   0  0
   -3.5706   -0.4200    0.0000 C   0  0
   -4.2849   -0.8337    0.0000 N   0  0
   -5.0006   -0.4225    0.0000 C   0  0
   -5.0017    0.2375    0.0000 O   0  0
   -5.7149   -0.8362    0.0000 C   0  0
   -6.4307   -0.4261    0.0000 C   0  0
   -7.1438   -0.8411    0.0000 C   0  0
   -7.1409   -1.6661    0.0000 C   0  0
   -7.7114   -1.9980    0.0000 C   0  0
   -6.4251   -2.0761    0.0000 C   0  0
   -5.7120   -1.6612    0.0000 C   0  0
   -6.4223   -2.9016    0.0000 C   0  0
   -6.4194   -3.7270    0.0000 C   0  0
   -6.4166   -4.5524    0.0000 C   0  0
   -7.1296   -4.9674    0.0000 C   0  0
   -7.1268   -5.7924    0.0000 C   0  0
   -6.4109   -6.2024    0.0000 C   0  0
   -5.6979   -5.7875    0.0000 N   0  0
   -5.7007   -4.9625    0.0000 C   0  0
   -3.5734    0.4050    0.0000 C   0  0
   -2.8604    0.8200    0.0000 C   0  0
   -2.8633    1.6454    0.0000 C   0  0
   -3.4358    1.9738    0.0000 F   0  0
   -2.2927    1.9772    0.0000 F   0  0
   -2.8653    2.3054    0.0000 F   0  0
   -0.7144   -0.4125    0.0000 C   0  0
    0.0000   -0.8250    0.0000 C   0  0
   -4.2839   -1.3837    0.0000 H   0  0
  1  2  1  0
  2  3  1  0
  3  4  1  0
  4  5  1  0
  5  6  1  0
  5 35  1  0
  6  7  1  0
  7  8  2  0
  8  9  1  0
  9 10  2  0
 10 11  1  0
 10 29  1  0
 11 12  1  0
 11 37  1  0
 12 13  2  0
 12 14  1  0
 14 15  2  0
 15 16  1  0
 16 17  2  0
 17 18  1  0
 17 19  1  0
 19 20  2  0
 19 21  1  0
 20 14  1  0
 21 22  3  0
 22 23  1  0
 23 24  2  0
 24 25  1  0
 25 26  2  0
 26 27  1  0
 27 28  2  0
 28 23  1  0
 29 30  2  0
 30  7  1  0
 30 31  1  0
 31 32  1  0
 31 33  1  0
 31 34  1  0
 35 36  1  0
 36  2  1  0
M  END
> <CMPD_CHEMBLID>
CHEMBL1784625

> <STANDARD_TYPE>
IC50

> <RELATION>
=

> <STANDARD_VALUE>
40.3

> <STANDARD_UNITS>
nM

> <Molecular_Weight>
492.53539

$$$$

  SciTegic11272012012D

 27 30  0  0  0  0            999 V2000
    1.4227   -3.2999    0.0000 N   0  0
    2.1388   -2.8893    0.0000 C   0  0
    2.1419   -2.0639    0.0000 C   0  0
    2.8570   -1.6525    0.0000 C   0  0
    2.8583   -0.8275    0.0000 C   0  0
    2.1445   -0.4139    0.0000 C   0  0
    1.4293   -0.8252    0.0000 C   0  0
    1.4281   -1.6502    0.0000 C   0  0
    0.7144   -0.4125    0.0000 C   0  0
    0.7144    0.4125    0.0000 C   0  0
    0.0000    0.8250    0.0000 C   0  0
   -0.7144    0.4125    0.0000 C   0  0
   -1.4290    0.8250    0.0000 C   0  0
   -2.1434    0.4125    0.0000 C   0  0
   -2.8591    0.8237    0.0000 N   0  0
   -3.5734    0.4100    0.0000 C   0  0
   -3.5722   -0.2500    0.0000 O   0  0
   -4.2891    0.8213    0.0000 C   0  0
   -5.0706    0.7961    0.0000 C   0  0
   -4.6581    1.5106    0.0000 C   0  0
   -2.1434   -0.4125    0.0000 N   0  0
   -1.4290   -0.8250    0.0000 C   0  0
   -0.7144   -0.4125    0.0000 C   0  0
    0.0000   -0.8250    0.0000 C   0  0
   -2.8601    1.3737    0.0000 H   0  0
    1.4208   -3.8499    0.0000 H   0  0
    0.9474   -3.0233    0.0000 H   0  0
  1  2  1  0
  1 26  1  0
  1 27  1  0
  2  3  1  0
  3  4  2  0
  4  5  1  0
  5  6  2  0
  6  7  1  0
  7  8  2  0
  7  9  1  0
  8  3  1  0
  9 10  2  0
 10 11  1  0
 11 12  2  0
 12 13  1  0
 13 14  2  0
 14 15  1  0
 14 21  1  0
 15 16  1  0
 15 25  1  0
 16 17  2  0
 16 18  1  0
 18 19  1  0
 19 20  1  0
 20 18  1  0
 21 22  2  0
 22 23  1  0
 23 12  1  0
 23 24  2  0
 24  9  1  0
M  END
> <CMPD_CHEMBLID>
CHEMBL3685183

> <STANDARD_TYPE>
Ki

> <RELATION>
=

> <STANDARD_VALUE>
41

> <STANDARD_UNITS>
nM

> <Molecular_Weight>
317.38436

$$$$

  SciTegic11272012012D

 40 44  0  0  0  0            999 V2000
   -8.0924    0.7225    0.0000 C   0  0
   -7.8908    0.0941    0.0000 N   0  0
   -8.4451   -0.5169    0.0000 C   0  0
   -8.1930   -1.3025    0.0000 C   0  0
   -7.3867   -1.4771    0.0000 N   0  0
   -7.1329   -2.2625    0.0000 C   0  0
   -6.3259   -2.4360    0.0000 C   0  0
   -5.7738   -1.8230    0.0000 C   0  0
   -4.9668   -1.9947    0.0000 C   0  0
   -4.7120   -2.7794    0.0000 C   0  0
   -3.9050   -2.9528    0.0000 N   0  0
   -3.6512   -3.7383    0.0000 C   0  0
   -4.0938   -4.2279    0.0000 O   0  0
   -2.8442   -3.9117    0.0000 C   0  0
   -2.5894   -4.6964    0.0000 C   0  0
   -1.7825   -4.8681    0.0000 C   0  0
   -1.2303   -4.2551    0.0000 C   0  0
   -0.5848   -4.3925    0.0000 Cl  0  0
   -1.4851   -3.4705    0.0000 C   0  0
   -2.2920   -3.2988    0.0000 C   0  0
   -0.9327   -2.8571    0.0000 C   0  0
   -0.3802   -2.2438    0.0000 C   0  0
    0.1713   -1.6316    0.0000 C   0  0
    0.9917   -1.7178    0.0000 C   0  0
    1.3273   -0.9641    0.0000 N   0  0
    0.7144   -0.4125    0.0000 C   0  0
    0.7144    0.4125    0.0000 C   0  0
    0.0000    0.8250    0.0000 C   0  0
   -0.7144    0.4125    0.0000 C   0  0
   -0.7144   -0.4125    0.0000 N   0  0
    0.0000   -0.8250    0.0000 N   0  0
   -5.2643   -3.3924    0.0000 C   0  0
   -6.0712   -3.2207    0.0000 C   0  0
   -6.6236   -3.8339    0.0000 C   0  0
   -6.4202   -4.4618    0.0000 F   0  0
   -7.2692   -3.6964    0.0000 F   0  0
   -7.0656   -4.3241    0.0000 F   0  0
   -6.8325   -0.8660    0.0000 C   0  0
   -7.0845   -0.0804    0.0000 C   0  0
   -3.5362   -2.5448    0.0000 H   0  0
  1  2  1  0
  2  3  1  0
  3  4  1  0
  4  5  1  0
  5  6  1  0
  5 38  1  0
  6  7  1  0
  7  8  2  0
  8  9  1  0
  9 10  2  0
 10 11  1  0
 10 32  1  0
 11 12  1  0
 11 40  1  0
 12 13  2  0
 12 14  1  0
 14 15  2  0
 15 16  1  0
 16 17  2  0
 17 18  1  0
 17 19  1  0
 19 20  2  0
 19 21  1  0
 20 14  1  0
 21 22  3  0
 22 23  1  0
 23 24  2  0
 24 25  1  0
 25 26  2  0
 26 27  1  0
 27 28  2  0
 28 29  1  0
 29 30  2  0
 30 31  1  0
 31 23  1  0
 31 26  1  0
 32 33  2  0
 33  7  1  0
 33 34  1  0
 34 35  1  0
 34 36  1  0
 34 37  1  0
 38 39  1  0
 39  2  1  0
M  END
> <CMPD_CHEMBLID>
CHEMBL1173424

> <STANDARD_TYPE>
IC50

> <RELATION>
=

> <STANDARD_VALUE>
41

> <STANDARD_UNITS>
nM

> <Molecular_Weight>
552.97797

$$$$

  SciTegic11272012012D

 30 33  0  0  0  0            999 V2000
    1.4276   -1.4867    0.0000 C   0  0
    1.4285   -0.8267    0.0000 C   0  0
    0.7144   -0.4125    0.0000 C   0  0
    0.7144    0.4125    0.0000 C   0  0
    0.0000    0.8250    0.0000 C   0  0
   -0.7144    0.4125    0.0000 C   0  0
   -0.7144   -0.4125    0.0000 C   0  0
    0.0000   -0.8250    0.0000 C   0  0
   -1.4302    0.8237    0.0000 C   0  0
   -1.4313    1.4837    0.0000 O   0  0
   -2.1444    0.4100    0.0000 N   0  0
   -2.8602    0.8213    0.0000 C   0  0
   -3.5747    0.4088    0.0000 C   0  0
   -4.2892    0.8213    0.0000 C   0  0
   -4.2892    1.6463    0.0000 C   0  0
   -4.8608    1.9763    0.0000 C   0  0
   -3.5747    2.0588    0.0000 C   0  0
   -2.8602    1.6463    0.0000 C   0  0
   -3.5747    2.8842    0.0000 N   0  0
   -4.2414    3.3581    0.0000 C   0  0
   -3.9853    4.1424    0.0000 C   0  0
   -3.1603    4.1411    0.0000 C   0  0
   -2.9066    3.3560    0.0000 N   0  0
   -4.4694    4.8109    0.0000 C   0  0
   -5.2913    4.7875    0.0000 C   0  0
   -5.7236    5.4902    0.0000 C   0  0
   -5.3311    6.2159    0.0000 C   0  0
   -4.5064    6.2389    0.0000 N   0  0
   -4.0742    5.5361    0.0000 C   0  0
   -2.1435   -0.1400    0.0000 H   0  0
  1  2  1  0
  2  3  1  0
  3  4  2  0
  4  5  1  0
  5  6  2  0
  6  7  1  0
  6  9  1  0
  7  8  2  0
  8  3  1  0
  9 10  2  0
  9 11  1  0
 11 12  1  0
 11 30  1  0
 12 13  2  0
 13 14  1  0
 14 15  2  0
 15 16  1  0
 15 17  1  0
 17 18  2  0
 17 19  1  0
 18 12  1  0
 19 20  1  0
 20 21  2  0
 21 22  1  0
 21 24  1  0
 22 23  2  0
 23 19  1  0
 24 25  2  0
 25 26  1  0
 26 27  2  0
 27 28  1  0
 28 29  2  0
 29 24  1  0
M  END
> <CMPD_CHEMBLID>
CHEMBL3597608

> <STANDARD_TYPE>
IC50

> <RELATION>
=

> <STANDARD_VALUE>
41.02

> <STANDARD_UNITS>
nM

> <Molecular_Weight>
382.45768

$$$$

  SciTegic11272012012D

 30 33  0  0  0  0            999 V2000
    0.8560   -1.9794    0.0000 C   0  0
    1.4281   -1.6502    0.0000 C   0  0
    2.1419   -2.0639    0.0000 C   0  0
    2.8570   -1.6525    0.0000 C   0  0
    2.8583   -0.8275    0.0000 C   0  0
    3.5747   -0.4174    0.0000 C   0  0
    3.5769    0.2426    0.0000 O   0  0
    4.2884   -0.8323    0.0000 N   0  0
    5.0047   -0.4221    0.0000 C   0  0
    5.5752   -0.7540    0.0000 C   0  0
    4.4232    0.1119    0.0000 C   0  0
    5.0086    0.6932    0.0000 O   0  0
    5.5899    0.1078    0.0000 C   0  0
    2.1445   -0.4139    0.0000 C   0  0
    2.1456    0.2461    0.0000 F   0  0
    1.4293   -0.8252    0.0000 C   0  0
    0.7145   -0.4125    0.0000 C   0  0
    0.7145    0.4125    0.0000 C   0  0
    0.0000    0.8250    0.0000 C   0  0
   -0.7145    0.4125    0.0000 C   0  0
   -1.4290    0.8250    0.0000 C   0  0
   -2.1434    0.4125    0.0000 C   0  0
   -2.8592    0.8237    0.0000 N   0  0
   -2.1434   -0.4125    0.0000 N   0  0
   -1.4290   -0.8250    0.0000 C   0  0
   -0.7145   -0.4125    0.0000 C   0  0
    0.0000   -0.8250    0.0000 C   0  0
   -3.3351    0.5481    0.0000 H   0  0
   -2.8601    1.3738    0.0000 H   0  0
    4.2865   -1.3823    0.0000 H   0  0
  1  2  1  0
  2  3  2  0
  3  4  1  0
  4  5  2  0
  5  6  1  0
  5 14  1  0
  6  7  2  0
  6  8  1  0
  8  9  1  0
  8 30  1  0
  9 10  1  0
  9 11  1  0
 11 12  1  0
 12 13  1  0
 13  9  1  0
 14 15  1  0
 14 16  2  0
 16  2  1  0
 16 17  1  0
 17 18  2  0
 18 19  1  0
 19 20  2  0
 20 21  1  0
 21 22  2  0
 22 23  1  0
 22 24  1  0
 23 28  1  0
 23 29  1  0
 24 25  2  0
 25 26  1  0
 26 20  1  0
 26 27  2  0
 27 17  1  0
M  END
> <CMPD_CHEMBLID>
CHEMBL3689754

> <STANDARD_TYPE>
Ki

> <RELATION>
=

> <STANDARD_VALUE>
41.6

> <STANDARD_UNITS>
nM

> <Molecular_Weight>
365.4008

$$$$

  SciTegic11272012012D

 29 32  0  0  0  0            999 V2000
    2.1456    0.2461    0.0000 C   0  0
    2.1445   -0.4139    0.0000 C   0  0
    2.8583   -0.8275    0.0000 C   0  0
    2.8570   -1.6525    0.0000 C   0  0
    2.1419   -2.0639    0.0000 C   0  0
    1.4281   -1.6502    0.0000 C   0  0
    1.4293   -0.8252    0.0000 C   0  0
    0.7145   -0.4125    0.0000 C   0  0
    0.7145    0.4125    0.0000 C   0  0
    0.0000    0.8250    0.0000 C   0  0
   -0.7145    0.4125    0.0000 C   0  0
   -1.4290    0.8250    0.0000 C   0  0
   -2.1434    0.4125    0.0000 C   0  0
   -2.8592    0.8237    0.0000 N   0  0
   -2.1434   -0.4125    0.0000 N   0  0
   -1.4290   -0.8250    0.0000 C   0  0
   -0.7145   -0.4125    0.0000 C   0  0
    0.0000   -0.8250    0.0000 C   0  0
    2.1389   -2.8894    0.0000 C   0  0
    2.7094   -3.2213    0.0000 O   0  0
    1.4228   -3.2999    0.0000 N   0  0
    1.4198   -4.1254    0.0000 C   0  0
    0.8471   -4.4535    0.0000 C   0  0
    2.1730   -3.8888    0.0000 C   0  0
    2.3837   -4.6864    0.0000 O   0  0
    1.5861   -4.8972    0.0000 C   0  0
    0.9474   -3.0233    0.0000 H   0  0
   -3.3351    0.5481    0.0000 H   0  0
   -2.8601    1.3738    0.0000 H   0  0
  1  2  1  0
  2  3  2  0
  3  4  1  0
  4  5  2  0
  5  6  1  0
  5 19  1  0
  6  7  2  0
  7  2  1  0
  7  8  1  0
  8  9  2  0
  9 10  1  0
 10 11  2  0
 11 12  1  0
 12 13  2  0
 13 14  1  0
 13 15  1  0
 14 28  1  0
 14 29  1  0
 15 16  2  0
 16 17  1  0
 17 11  1  0
 17 18  2  0
 18  8  1  0
 19 20  2  0
 19 21  1  0
 21 22  1  0
 21 27  1  0
 22 23  1  0
 22 24  1  0
 24 25  1  0
 25 26  1  0
 26 22  1  0
M  END
> <CMPD_CHEMBLID>
CHEMBL3689751

> <STANDARD_TYPE>
Ki

> <RELATION>
=

> <STANDARD_VALUE>
41.6

> <STANDARD_UNITS>
nM

> <Molecular_Weight>
347.41034

$$$$

  SciTegic11272012012D

 24 27  0  0  0  0            999 V2000
    1.2790   -2.1751    0.0000 C   0  0
    1.6170   -1.6082    0.0000 C   0  0
    2.4143   -1.3959    0.0000 C   0  0
    2.2020   -0.5987    0.0000 C   0  0
    2.5258   -0.0235    0.0000 C   0  0
    1.4293   -0.8252    0.0000 N   0  0
    0.7145   -0.4125    0.0000 C   0  0
    0.7145    0.4125    0.0000 C   0  0
    0.0000    0.8250    0.0000 C   0  0
   -0.7145    0.4125    0.0000 C   0  0
   -1.4290    0.8250    0.0000 C   0  0
   -2.1435    0.4125    0.0000 C   0  0
   -2.8592    0.8238    0.0000 N   0  0
   -3.5735    0.4100    0.0000 C   0  0
   -3.5723   -0.2500    0.0000 O   0  0
   -4.2892    0.8213    0.0000 C   0  0
   -4.6582    1.5106    0.0000 C   0  0
   -5.0707    0.7961    0.0000 C   0  0
   -5.6369    0.4571    0.0000 F   0  0
   -2.1435   -0.4125    0.0000 N   0  0
   -1.4290   -0.8250    0.0000 C   0  0
   -0.7145   -0.4125    0.0000 C   0  0
    0.0000   -0.8250    0.0000 C   0  0
   -2.8602    1.3738    0.0000 H   0  0
  1  2  1  0
  2  3  1  0
  3  4  1  0
  4  5  1  0
  4  6  1  0
  6  2  1  0
  6  7  1  0
  7  8  2  0
  8  9  1  0
  9 10  2  0
 10 11  1  0
 11 12  2  0
 12 13  1  0
 12 20  1  0
 13 14  1  0
 13 24  1  0
 14 15  2  0
 14 16  1  0
 16 17  1  0
 17 18  1  0
 18 16  1  0
 18 19  1  0
 20 21  2  0
 21 22  1  0
 22 10  1  0
 22 23  2  0
 23  7  1  0
M  END
> <CMPD_CHEMBLID>
CHEMBL3689716

> <STANDARD_TYPE>
Ki

> <RELATION>
=

> <STANDARD_VALUE>
41.6

> <STANDARD_UNITS>
nM

> <Molecular_Weight>
313.3693

$$$$

  SciTegic11272012012D

 26 29  0  0  0  0            999 V2000
    2.1455    0.2461    0.0000 C   0  0
    2.1445   -0.4139    0.0000 C   0  0
    2.8583   -0.8275    0.0000 C   0  0
    2.8570   -1.6525    0.0000 C   0  0
    2.1419   -2.0639    0.0000 N   0  0
    1.4281   -1.6502    0.0000 C   0  0
    1.4293   -0.8252    0.0000 C   0  0
    0.7144   -0.4125    0.0000 C   0  0
    0.7144    0.4125    0.0000 C   0  0
    0.0000    0.8250    0.0000 C   0  0
    0.0000    1.6500    0.0000 C   0  0
   -0.7145    2.0625    0.0000 N   0  3
   -0.7145    2.7225    0.0000 O   0  5
   -1.4290    1.6500    0.0000 C   0  0
   -2.1447    2.0612    0.0000 N   0  0
   -2.8590    1.6475    0.0000 C   0  0
   -2.8578    0.9875    0.0000 O   0  0
   -3.5747    2.0588    0.0000 C   0  0
   -3.9436    2.7481    0.0000 C   0  0
   -4.3561    2.0337    0.0000 C   0  0
   -4.9223    1.6946    0.0000 F   0  0
   -1.4290    0.8250    0.0000 C   0  0
   -0.7144    0.4125    0.0000 C   0  0
   -0.7144   -0.4125    0.0000 C   0  0
    0.0000   -0.8250    0.0000 N   0  0
   -2.1457    2.6112    0.0000 H   0  0
  1  2  1  0
  2  3  2  0
  3  4  1  0
  4  5  2  0
  5  6  1  0
  6  7  2  0
  7  2  1  0
  7  8  1  0
  8  9  2  0
  9 10  1  0
 10 11  2  0
 11 12  1  0
 12 13  1  0
 12 14  2  0
 14 15  1  0
 14 22  1  0
 15 16  1  0
 15 26  1  0
 16 17  2  0
 16 18  1  0
 18 19  1  0
 19 20  1  0
 20 18  1  0
 20 21  1  0
 22 23  2  0
 23 10  1  0
 23 24  1  0
 24 25  2  0
 25  8  1  0
M  CHG  2  12   1  13  -1
M  END
> <CMPD_CHEMBLID>
CHEMBL3689744

> <STANDARD_TYPE>
Ki

> <RELATION>
=

> <STANDARD_VALUE>
41.6

> <STANDARD_UNITS>
nM

> <Molecular_Weight>
338.3357

$$$$

  SciTegic11272012012D

 29 32  0  0  0  0            999 V2000
    2.1456    0.2461    0.0000 C   0  0
    2.1445   -0.4139    0.0000 C   0  0
    2.8583   -0.8275    0.0000 N   0  0
    2.8570   -1.6525    0.0000 C   0  0
    2.1419   -2.0639    0.0000 C   0  0
    1.4281   -1.6502    0.0000 C   0  0
    1.4293   -0.8252    0.0000 C   0  0
    0.7145   -0.4125    0.0000 C   0  0
    0.7145    0.4125    0.0000 C   0  0
    0.0000    0.8250    0.0000 C   0  0
   -0.7145    0.4125    0.0000 C   0  0
   -1.4290    0.8250    0.0000 C   0  0
   -2.1434    0.4125    0.0000 C   0  0
   -2.8592    0.8237    0.0000 N   0  0
   -2.1434   -0.4125    0.0000 N   0  0
   -1.4290   -0.8250    0.0000 C   0  0
   -0.7145   -0.4125    0.0000 C   0  0
    0.0000   -0.8250    0.0000 C   0  0
    2.1389   -2.8894    0.0000 C   0  0
    2.7094   -3.2213    0.0000 O   0  0
    1.4228   -3.2999    0.0000 N   0  0
    1.4198   -4.1254    0.0000 C   0  0
    0.8471   -4.4535    0.0000 C   0  0
    2.1730   -3.8888    0.0000 C   0  0
    2.3837   -4.6864    0.0000 C   0  0
    1.5861   -4.8972    0.0000 C   0  0
    0.9474   -3.0233    0.0000 H   0  0
   -3.3351    0.5481    0.0000 H   0  0
   -2.8601    1.3738    0.0000 H   0  0
  1  2  1  0
  2  3  2  0
  3  4  1  0
  4  5  2  0
  5  6  1  0
  5 19  1  0
  6  7  2  0
  7  2  1  0
  7  8  1  0
  8  9  2  0
  9 10  1  0
 10 11  2  0
 11 12  1  0
 12 13  2  0
 13 14  1  0
 13 15  1  0
 14 28  1  0
 14 29  1  0
 15 16  2  0
 16 17  1  0
 17 11  1  0
 17 18  2  0
 18  8  1  0
 19 20  2  0
 19 21  1  0
 21 22  1  0
 21 27  1  0
 22 23  1  0
 22 24  1  0
 24 25  1  0
 25 26  1  0
 26 22  1  0
M  END
> <CMPD_CHEMBLID>
CHEMBL3689753

> <STANDARD_TYPE>
Ki

> <RELATION>
=

> <STANDARD_VALUE>
41.6

> <STANDARD_UNITS>
nM

> <Molecular_Weight>
346.42558

$$$$

  SciTegic11272012012D

 42 46  0  0  0  0            999 V2000
    3.4216    4.7490    0.0000 C   0  0
    4.0775    4.8221    0.0000 C   0  0
    4.3419    5.4268    0.0000 C   0  0
    3.6861    5.3535    0.0000 C   0  0
    4.5664    4.1588    0.0000 C   0  0
    4.3170    3.3724    0.0000 C   0  0
    4.9877    2.9042    0.0000 C   0  0
    4.9917    2.0787    0.0000 N   0  0
    4.2791    1.6621    0.0000 C   0  0
    3.7059    1.9891    0.0000 O   0  0
    4.2832    0.8366    0.0000 N   0  0
    3.5706    0.4200    0.0000 C   0  0
    3.5735   -0.4050    0.0000 C   0  0
    2.8604   -0.8200    0.0000 C   0  0
    2.1445   -0.4100    0.0000 C   0  0
    1.4302   -0.8237    0.0000 N   0  0
    0.7145   -0.4125    0.0000 C   0  0
    0.7145    0.4125    0.0000 N   0  0
    0.0000    0.8250    0.0000 C   0  0
   -0.7145    0.4125    0.0000 N   0  0
   -0.7145   -0.4125    0.0000 C   0  0
   -1.4290   -0.8250    0.0000 C   0  0
   -1.4290   -1.6500    0.0000 C   0  0
   -0.7145   -2.0625    0.0000 C   0  0
    0.0000   -1.6500    0.0000 C   0  0
    0.0000   -0.8250    0.0000 C   0  0
    2.1417    0.4150    0.0000 C   0  0
    2.8547    0.8300    0.0000 C   0  0
    5.6518    3.3817    0.0000 N   0  0
    5.3914    4.1646    0.0000 N   0  0
    6.4371    3.1274    0.0000 C   0  0
    6.6716    2.3395    0.0000 C   0  0
    7.4742    2.1484    0.0000 C   0  0
    8.0409    2.7480    0.0000 C   0  0
    7.8051    3.5385    0.0000 C   0  0
    7.0025    3.7296    0.0000 C   0  0
    8.3709    4.1396    0.0000 N   0  3
    8.1813    4.7718    0.0000 O   0  0
    9.0132    3.9879    0.0000 O   0  5
    1.4312   -1.3737    0.0000 H   0  0
    4.7609    0.5641    0.0000 H   0  0
    5.4694    1.8062    0.0000 H   0  0
  1  2  1  0
  2  3  1  0
  2  4  1  0
  2  5  1  0
  5  6  1  0
  6  7  2  0
  7  8  1  0
  7 29  1  0
  8  9  1  0
  8 42  1  0
  9 10  2  0
  9 11  1  0
 11 12  1  0
 11 41  1  0
 12 13  2  0
 13 14  1  0
 14 15  2  0
 15 16  1  0
 15 27  1  0
 16 17  1  0
 16 40  1  0
 17 18  2  0
 18 19  1  0
 19 20  2  0
 20 21  1  0
 21 22  2  0
 22 23  1  0
 23 24  2  0
 24 25  1  0
 25 26  2  0
 26 17  1  0
 26 21  1  0
 27 28  2  0
 28 12  1  0
 29 30  1  0
 29 31  1  0
 30  5  2  0
 31 32  2  0
 32 33  1  0
 33 34  2  0
 34 35  1  0
 35 36  2  0
 35 37  1  0
 36 31  1  0
 37 38  2  0
 37 39  1  0
M  CHG  2  37   1  39  -1
M  END
> <CMPD_CHEMBLID>
CHEMBL2403814

> <STANDARD_TYPE>
IC50

> <RELATION>
=

> <STANDARD_VALUE>
42

> <STANDARD_UNITS>
nM

> <Molecular_Weight>
522.55784

$$$$

  SciTegic11272012012D

 26 29  0  0  0  0            999 V2000
    2.1456    0.2461    0.0000 C   0  0
    2.1445   -0.4139    0.0000 C   0  0
    2.8583   -0.8275    0.0000 C   0  0
    2.8570   -1.6525    0.0000 C   0  0
    2.1419   -2.0639    0.0000 C   0  0
    2.1408   -2.7239    0.0000 F   0  0
    1.4281   -1.6502    0.0000 C   0  0
    1.4293   -0.8252    0.0000 C   0  0
    0.7145   -0.4125    0.0000 C   0  0
    0.7145    0.4125    0.0000 C   0  0
    0.0000    0.8250    0.0000 C   0  0
   -0.7145    0.4125    0.0000 C   0  0
   -1.4290    0.8250    0.0000 C   0  0
   -2.1434    0.4125    0.0000 C   0  0
   -2.1434   -0.4125    0.0000 N   0  0
   -1.4290   -0.8250    0.0000 C   0  0
   -0.7145   -0.4125    0.0000 C   0  0
    0.0000   -0.8250    0.0000 C   0  0
   -2.8592    0.8237    0.0000 C   0  0
   -2.8603    1.4838    0.0000 O   0  0
   -3.5735    0.4100    0.0000 N   0  0
   -4.2892    0.8213    0.0000 C   0  0
   -5.0614    0.5935    0.0000 C   0  0
   -5.2750    1.3904    0.0000 C   0  0
   -4.4781    1.6039    0.0000 C   0  0
   -3.5725   -0.1400    0.0000 H   0  0
  1  2  1  0
  2  3  2  0
  3  4  1  0
  4  5  2  0
  5  6  1  0
  5  7  1  0
  7  8  2  0
  8  2  1  0
  8  9  1  0
  9 10  2  0
 10 11  1  0
 11 12  2  0
 12 13  1  0
 13 14  2  0
 14 15  1  0
 14 19  1  0
 15 16  2  0
 16 17  1  0
 17 12  1  0
 17 18  2  0
 18  9  1  0
 19 20  2  0
 19 21  1  0
 21 22  1  0
 21 26  1  0
 22 23  1  0
 23 24  1  0
 24 25  1  0
 25 22  1  0
M  END
> <CMPD_CHEMBLID>
CHEMBL3689622

> <STANDARD_TYPE>
Ki

> <RELATION>
=

> <STANDARD_VALUE>
42

> <STANDARD_UNITS>
nM

> <Molecular_Weight>
334.38676

$$$$

  SciTegic11272012012D

 34 38  0  0  0  0            999 V2000
    1.2861   -0.7425    0.0000 C   0  0
    0.7144   -0.4125    0.0000 C   0  0
    0.7144    0.4125    0.0000 C   0  0
    0.0000    0.8250    0.0000 C   0  0
   -0.7144    0.4125    0.0000 C   0  0
   -0.7144   -0.4125    0.0000 C   0  0
   -1.4290   -0.8250    0.0000 N   0  0
   -1.4290   -1.6500    0.0000 N   0  0
   -0.7144   -2.0625    0.0000 C   0  0
   -0.7127   -2.8879    0.0000 N   0  0
    0.0027   -3.2997    0.0000 C   0  0
    0.0056   -4.1247    0.0000 C   0  0
    0.7215   -4.5347    0.0000 C   0  0
    1.4345   -4.1197    0.0000 C   0  0
    2.1517   -4.5285    0.0000 O   0  0
    2.8645   -4.1123    0.0000 C   0  0
    3.5817   -4.5211    0.0000 C   0  0
    4.2945   -4.1049    0.0000 N   0  0
    5.0401   -4.4412    0.0000 C   0  0
    5.5878   -3.8243    0.0000 C   0  0
    5.1704   -3.1127    0.0000 C   0  0
    4.3646   -3.2899    0.0000 C   0  0
    1.4317   -3.2947    0.0000 C   0  0
    0.7158   -2.8847    0.0000 C   0  0
    0.0000   -1.6500    0.0000 N   0  0
    0.0000   -0.8250    0.0000 C   0  0
    0.0000    1.6504    0.0000 C   0  0
   -0.7151    2.0618    0.0000 C   0  0
   -0.7164    2.8868    0.0000 C   0  0
   -0.0026    3.3005    0.0000 C   0  0
    0.7125    2.8891    0.0000 C   0  0
    0.7138    2.0641    0.0000 C   0  0
    1.2859    1.7350    0.0000 Cl  0  0
   -1.1886   -3.1638    0.0000 H   0  0
  1  2  1  0
  2  3  2  0
  3  4  1  0
  4  5  2  0
  4 27  1  0
  5  6  1  0
  6  7  2  0
  7  8  1  0
  8  9  2  0
  9 10  1  0
  9 25  1  0
 10 11  1  0
 10 34  1  0
 11 12  2  0
 12 13  1  0
 13 14  2  0
 14 15  1  0
 14 23  1  0
 15 16  1  0
 16 17  1  0
 17 18  1  0
 18 19  1  0
 19 20  1  0
 20 21  1  0
 21 22  1  0
 22 18  1  0
 23 24  2  0
 24 11  1  0
 25 26  2  0
 26  2  1  0
 26  6  1  0
 27 28  2  0
 28 29  1  0
 29 30  2  0
 30 31  1  0
 31 32  2  0
 32 27  1  0
 32 33  1  0
M  END
> <CMPD_CHEMBLID>
CHEMBL268825

> <STANDARD_TYPE>
Ki

> <RELATION>
=

> <STANDARD_VALUE>
42

> <STANDARD_UNITS>
nM

> <Molecular_Weight>
459.97054

$$$$

  SciTegic11272012012D

 24 27  0  0  0  0            999 V2000
    2.1456    0.2461    0.0000 C   0  0
    2.1445   -0.4139    0.0000 C   0  0
    2.8583   -0.8275    0.0000 C   0  0
    2.8570   -1.6525    0.0000 C   0  0
    2.1419   -2.0639    0.0000 C   0  0
    2.1408   -2.7239    0.0000 F   0  0
    1.4281   -1.6502    0.0000 C   0  0
    1.4293   -0.8252    0.0000 C   0  0
    0.7145   -0.4125    0.0000 C   0  0
    0.7145    0.4125    0.0000 C   0  0
    0.0000    0.8250    0.0000 C   0  0
   -0.7145    0.4125    0.0000 C   0  0
   -1.4290    0.8250    0.0000 C   0  0
   -2.1434    0.4125    0.0000 C   0  0
   -2.8592    0.8237    0.0000 N   0  0
   -3.5735    0.4100    0.0000 C   0  0
   -4.2892    0.8213    0.0000 C   0  0
   -5.0706    0.7961    0.0000 C   0  0
   -4.6581    1.5106    0.0000 C   0  0
   -2.1434   -0.4125    0.0000 N   0  0
   -1.4290   -0.8250    0.0000 C   0  0
   -0.7145   -0.4125    0.0000 C   0  0
    0.0000   -0.8250    0.0000 C   0  0
   -2.8601    1.3738    0.0000 H   0  0
  1  2  1  0
  2  3  2  0
  3  4  1  0
  4  5  2  0
  5  6  1  0
  5  7  1  0
  7  8  2  0
  8  2  1  0
  8  9  1  0
  9 10  2  0
 10 11  1  0
 11 12  2  0
 12 13  1  0
 13 14  2  0
 14 15  1  0
 14 20  1  0
 15 16  1  0
 15 24  1  0
 16 17  1  0
 17 18  1  0
 18 19  1  0
 19 17  1  0
 20 21  2  0
 21 22  1  0
 22 12  1  0
 22 23  2  0
 23  9  1  0
M  END
> <CMPD_CHEMBLID>
CHEMBL3685091

> <STANDARD_TYPE>
Ki

> <RELATION>
=

> <STANDARD_VALUE>
42

> <STANDARD_UNITS>
nM

> <Molecular_Weight>
306.37666

$$$$

  SciTegic11272012012D

 26 28  0  0  0  0            999 V2000
    0.8551   -1.9812    0.0000 C   0  0
    1.4273   -1.6521    0.0000 C   0  0
    1.4285   -0.8267    0.0000 N   0  0
    0.7144   -0.4125    0.0000 C   0  0
    0.7144    0.4125    0.0000 C   0  0
    0.0000    0.8250    0.0000 C   0  0
    0.0000    1.6500    0.0000 C   0  0
   -0.7145    2.0625    0.0000 C   0  0
   -1.4290    1.6500    0.0000 C   0  0
   -1.4290    0.8250    0.0000 C   0  0
   -0.7144    0.4125    0.0000 C   0  0
   -0.7144   -0.4125    0.0000 C   0  0
    0.0000   -0.8250    0.0000 N   0  0
   -2.1438    2.0627    0.0000 C   0  0
   -2.8576    1.6491    0.0000 C   0  0
   -3.5728    2.0605    0.0000 C   0  0
   -4.1438    1.7295    0.0000 F   0  0
   -3.5741    2.8855    0.0000 C   0  0
   -2.8603    3.2991    0.0000 C   0  0
   -2.1452    2.8877    0.0000 C   0  0
   -1.5741    3.2187    0.0000 C   0  0
    2.1413   -2.0663    0.0000 C   0  0
    2.1404   -2.7264    0.0000 F   0  0
    2.7124   -2.3972    0.0000 F   0  0
    2.7135   -1.7373    0.0000 F   0  0
    1.9053   -0.5525    0.0000 H   0  0
  1  2  1  0
  2  3  1  0
  2 22  1  0
  3  4  1  0
  3 26  1  0
  4  5  2  0
  5  6  1  0
  6  7  2  0
  7  8  1  0
  8  9  2  0
  9 10  1  0
  9 14  1  0
 10 11  2  0
 11  6  1  0
 11 12  1  0
 12 13  2  0
 13  4  1  0
 14 15  2  0
 15 16  1  0
 16 17  1  0
 16 18  2  0
 18 19  1  0
 19 20  2  0
 20 14  1  0
 20 21  1  0
 22 23  1  0
 22 24  1  0
 22 25  1  0
M  END
> <CMPD_CHEMBLID>
CHEMBL3685090

> <STANDARD_TYPE>
Ki

> <RELATION>
=

> <STANDARD_VALUE>
42

> <STANDARD_UNITS>
nM

> <Molecular_Weight>
348.33735

$$$$

  SciTegic11272012012D

 25 28  0  0  0  0            999 V2000
    2.2541   -3.0993    0.0000 C   0  0
    2.6435   -2.5664    0.0000 C   0  0
    3.2996   -2.6374    0.0000 C   0  0
    2.3108   -1.8125    0.0000 N   0  0
    1.5040   -1.6398    0.0000 N   0  0
    1.4293   -0.8252    0.0000 C   0  0
    0.7145   -0.4125    0.0000 C   0  0
    0.7145    0.4125    0.0000 C   0  0
    0.0000    0.8250    0.0000 C   0  0
   -0.7145    0.4125    0.0000 C   0  0
   -1.4290    0.8250    0.0000 N   0  0
   -2.1435    0.4125    0.0000 C   0  0
   -2.1435   -0.4125    0.0000 C   0  0
   -1.4290   -0.8250    0.0000 C   0  0
   -0.7145   -0.4125    0.0000 C   0  0
    0.0000   -0.8250    0.0000 C   0  0
    2.1728   -0.4850    0.0000 C   0  0
    2.4289    0.2993    0.0000 C   0  0
    1.8786    0.9146    0.0000 N   0  0
    3.2361    0.4697    0.0000 N   0  0
    3.7873   -0.1443    0.0000 C   0  0
    3.5312   -0.9285    0.0000 N   0  0
    2.7239   -1.0989    0.0000 C   0  0
    2.0501    1.4372    0.0000 H   0  0
    1.3403    0.8020    0.0000 H   0  0
  1  2  1  0
  2  3  1  0
  2  4  1  0
  4  5  1  0
  5  6  2  0
  6  7  1  0
  6 17  1  0
  7  8  2  0
  8  9  1  0
  9 10  2  0
 10 11  1  0
 11 12  2  0
 12 13  1  0
 13 14  2  0
 14 15  1  0
 15 10  1  0
 15 16  2  0
 16  7  1  0
 17 18  2  0
 18 19  1  0
 18 20  1  0
 19 24  1  0
 19 25  1  0
 20 21  2  0
 21 22  1  0
 22 23  2  0
 23  4  1  0
 23 17  1  0
M  END
> <CMPD_CHEMBLID>
CHEMBL1233882

> <STANDARD_TYPE>
IC50

> <RELATION>
=

> <STANDARD_VALUE>
42

> <STANDARD_UNITS>
nM

> <Molecular_Weight>
304.34914

$$$$

  SciTegic11272012012D

 40 44  0  0  0  0            999 V2000
   -8.0924    0.7225    0.0000 C   0  0
   -7.8908    0.0941    0.0000 N   0  0
   -8.4451   -0.5169    0.0000 C   0  0
   -8.1930   -1.3025    0.0000 C   0  0
   -7.3867   -1.4771    0.0000 N   0  0
   -7.1329   -2.2625    0.0000 C   0  0
   -6.3259   -2.4360    0.0000 C   0  0
   -5.7738   -1.8230    0.0000 C   0  0
   -4.9668   -1.9947    0.0000 C   0  0
   -4.7120   -2.7794    0.0000 C   0  0
   -3.9050   -2.9528    0.0000 N   0  0
   -3.6512   -3.7383    0.0000 C   0  0
   -4.0938   -4.2279    0.0000 O   0  0
   -2.8442   -3.9117    0.0000 C   0  0
   -2.5894   -4.6964    0.0000 C   0  0
   -1.7825   -4.8681    0.0000 C   0  0
   -1.2303   -4.2551    0.0000 C   0  0
   -0.5848   -4.3925    0.0000 F   0  0
   -1.4851   -3.4705    0.0000 C   0  0
   -2.2920   -3.2988    0.0000 C   0  0
   -0.9327   -2.8571    0.0000 C   0  0
   -0.3802   -2.2438    0.0000 C   0  0
    0.1713   -1.6316    0.0000 C   0  0
    0.9917   -1.7178    0.0000 C   0  0
    1.3273   -0.9641    0.0000 N   0  0
    0.7144   -0.4125    0.0000 C   0  0
    0.7144    0.4125    0.0000 C   0  0
    0.0000    0.8250    0.0000 C   0  0
   -0.7144    0.4125    0.0000 C   0  0
   -0.7144   -0.4125    0.0000 N   0  0
    0.0000   -0.8250    0.0000 N   0  0
   -5.2643   -3.3924    0.0000 C   0  0
   -6.0712   -3.2207    0.0000 C   0  0
   -6.6236   -3.8339    0.0000 C   0  0
   -6.4202   -4.4618    0.0000 F   0  0
   -7.2692   -3.6964    0.0000 F   0  0
   -7.0656   -4.3241    0.0000 F   0  0
   -6.8325   -0.8660    0.0000 C   0  0
   -7.0845   -0.0804    0.0000 C   0  0
   -3.5362   -2.5448    0.0000 H   0  0
  1  2  1  0
  2  3  1  0
  3  4  1  0
  4  5  1  0
  5  6  1  0
  5 38  1  0
  6  7  1  0
  7  8  2  0
  8  9  1  0
  9 10  2  0
 10 11  1  0
 10 32  1  0
 11 12  1  0
 11 40  1  0
 12 13  2  0
 12 14  1  0
 14 15  2  0
 15 16  1  0
 16 17  2  0
 17 18  1  0
 17 19  1  0
 19 20  2  0
 19 21  1  0
 20 14  1  0
 21 22  3  0
 22 23  1  0
 23 24  2  0
 24 25  1  0
 25 26  2  0
 26 27  1  0
 27 28  2  0
 28 29  1  0
 29 30  2  0
 30 31  1  0
 31 23  1  0
 31 26  1  0
 32 33  2  0
 33  7  1  0
 33 34  1  0
 34 35  1  0
 34 36  1  0
 34 37  1  0
 38 39  1  0
 39  2  1  0
M  END
> <CMPD_CHEMBLID>
CHEMBL1173498

> <STANDARD_TYPE>
IC50

> <RELATION>
=

> <STANDARD_VALUE>
42

> <STANDARD_UNITS>
nM

> <Molecular_Weight>
536.52337

$$$$

  SciTegic11272012012D

 25 28  0  0  0  0            999 V2000
    2.1456    0.2461    0.0000 C   0  0
    2.1445   -0.4139    0.0000 C   0  0
    2.8583   -0.8275    0.0000 C   0  0
    2.8570   -1.6525    0.0000 C   0  0
    2.1419   -2.0639    0.0000 C   0  0
    2.1408   -2.7239    0.0000 F   0  0
    1.4281   -1.6502    0.0000 C   0  0
    1.4293   -0.8252    0.0000 C   0  0
    0.7145   -0.4125    0.0000 C   0  0
    0.7145    0.4125    0.0000 C   0  0
    0.0000    0.8250    0.0000 C   0  0
   -0.7145    0.4125    0.0000 C   0  0
   -1.4290    0.8250    0.0000 C   0  0
   -2.1434    0.4125    0.0000 C   0  0
   -2.1434   -0.4125    0.0000 N   0  0
   -1.4290   -0.8250    0.0000 C   0  0
   -0.7145   -0.4125    0.0000 C   0  0
    0.0000   -0.8250    0.0000 C   0  0
   -2.8592    0.8237    0.0000 C   0  0
   -2.8603    1.4838    0.0000 O   0  0
   -3.5735    0.4100    0.0000 N   0  0
   -4.2892    0.8213    0.0000 C   0  0
   -5.0706    0.7961    0.0000 C   0  0
   -4.6581    1.5106    0.0000 C   0  0
   -3.5725   -0.1400    0.0000 H   0  0
  1  2  1  0
  2  3  2  0
  3  4  1  0
  4  5  2  0
  5  6  1  0
  5  7  1  0
  7  8  2  0
  8  2  1  0
  8  9  1  0
  9 10  2  0
 10 11  1  0
 11 12  2  0
 12 13  1  0
 13 14  2  0
 14 15  1  0
 14 19  1  0
 15 16  2  0
 16 17  1  0
 17 12  1  0
 17 18  2  0
 18  9  1  0
 19 20  2  0
 19 21  1  0
 21 22  1  0
 21 25  1  0
 22 23  1  0
 23 24  1  0
 24 22  1  0
M  END
> <CMPD_CHEMBLID>
CHEMBL3689595

> <STANDARD_TYPE>
Ki

> <RELATION>
=

> <STANDARD_VALUE>
42

> <STANDARD_UNITS>
nM

> <Molecular_Weight>
320.36018

$$$$

  SciTegic11272012012D

 27 30  0  0  0  0            999 V2000
    2.1455    0.2461    0.0000 C   0  0
    2.1445   -0.4139    0.0000 C   0  0
    2.8583   -0.8275    0.0000 C   0  0
    2.8570   -1.6525    0.0000 C   0  0
    2.1419   -2.0639    0.0000 C   0  0
    2.1408   -2.7239    0.0000 F   0  0
    1.4281   -1.6502    0.0000 C   0  0
    1.4293   -0.8252    0.0000 C   0  0
    0.7144   -0.4125    0.0000 C   0  0
    0.7144    0.4125    0.0000 C   0  0
    0.0000    0.8250    0.0000 C   0  0
   -0.7144    0.4125    0.0000 C   0  0
   -1.4290    0.8250    0.0000 C   0  0
   -2.1434    0.4125    0.0000 C   0  0
   -2.8591    0.8237    0.0000 N   0  0
   -3.5734    0.4100    0.0000 C   0  0
   -3.5722   -0.2500    0.0000 O   0  0
   -4.2891    0.8213    0.0000 C   0  0
   -5.0035    0.4072    0.0000 O   0  0
   -3.8778    1.4632    0.0000 C   0  0
   -4.7028    1.4617    0.0000 C   0  0
   -2.1434   -0.4125    0.0000 N   0  0
   -1.4290   -0.8250    0.0000 C   0  0
   -0.7144   -0.4125    0.0000 C   0  0
    0.0000   -0.8250    0.0000 C   0  0
   -5.4804    0.6810    0.0000 H   0  0
   -2.8601    1.3737    0.0000 H   0  0
  1  2  1  0
  2  3  2  0
  3  4  1  0
  4  5  2  0
  5  6  1  0
  5  7  1  0
  7  8  2  0
  8  2  1  0
  8  9  1  0
  9 10  2  0
 10 11  1  0
 11 12  2  0
 12 13  1  0
 13 14  2  0
 14 15  1  0
 14 22  1  0
 15 16  1  0
 15 27  1  0
 16 17  2  0
 16 18  1  0
 18 19  1  0
 18 20  1  0
 19 26  1  0
 20 21  1  0
 21 18  1  0
 22 23  2  0
 23 24  1  0
 24 12  1  0
 24 25  2  0
 25  9  1  0
M  END
> <CMPD_CHEMBLID>
CHEMBL3685086

> <STANDARD_TYPE>
Ki

> <RELATION>
=

> <STANDARD_VALUE>
42

> <STANDARD_UNITS>
nM

> <Molecular_Weight>
336.35958

$$$$

  SciTegic11272012012D

 34 38  0  0  0  0            999 V2000
    2.1455    0.2461    0.0000 C   0  0
    2.1445   -0.4139    0.0000 C   0  0
    2.8583   -0.8275    0.0000 C   0  0
    2.8570   -1.6525    0.0000 C   0  0
    2.1419   -2.0639    0.0000 C   0  0
    1.4281   -1.6502    0.0000 C   0  0
    1.4293   -0.8252    0.0000 C   0  0
    0.7144   -0.4125    0.0000 C   0  0
    0.7144    0.4125    0.0000 C   0  0
    0.0000    0.8250    0.0000 C   0  0
    0.0000    1.6500    0.0000 C   0  0
   -0.7145    2.0625    0.0000 N   0  0
   -1.4290    1.6500    0.0000 C   0  0
   -2.1447    2.0612    0.0000 N   0  0
   -2.8590    1.6475    0.0000 C   0  0
   -2.8578    0.9875    0.0000 O   0  0
   -3.5747    2.0588    0.0000 C   0  0
   -3.9436    2.7481    0.0000 C   0  0
   -4.3561    2.0337    0.0000 C   0  0
   -4.9223    1.6946    0.0000 F   0  0
   -1.4290    0.8250    0.0000 C   0  0
   -0.7144    0.4125    0.0000 C   0  0
   -0.7144   -0.4125    0.0000 C   0  0
    0.0000   -0.8250    0.0000 N   0  0
    2.1388   -2.8893    0.0000 C   0  0
    2.7094   -3.2212    0.0000 O   0  0
    1.4227   -3.2999    0.0000 N   0  0
    1.4198   -4.1253    0.0000 C   0  0
    0.8471   -4.4535    0.0000 C   0  0
    2.1729   -3.8887    0.0000 C   0  0
    2.3837   -4.6864    0.0000 O   0  0
    1.5861   -4.8971    0.0000 C   0  0
    0.9474   -3.0233    0.0000 H   0  0
   -2.1457    2.6112    0.0000 H   0  0
  1  2  1  0
  2  3  2  0
  3  4  1  0
  4  5  2  0
  5  6  1  0
  5 25  1  0
  6  7  2  0
  7  2  1  0
  7  8  1  0
  8  9  2  0
  9 10  1  0
 10 11  2  0
 11 12  1  0
 12 13  2  0
 13 14  1  0
 13 21  1  0
 14 15  1  0
 14 34  1  0
 15 16  2  0
 15 17  1  0
 17 18  1  0
 18 19  1  0
 19 17  1  0
 19 20  1  0
 21 22  2  0
 22 10  1  0
 22 23  1  0
 23 24  2  0
 24  8  1  0
 25 26  2  0
 25 27  1  0
 27 28  1  0
 27 33  1  0
 28 29  1  0
 28 30  1  0
 30 31  1  0
 31 32  1  0
 32 28  1  0
M  END
> <CMPD_CHEMBLID>
CHEMBL3689679

> <STANDARD_TYPE>
Ki

> <RELATION>
=

> <STANDARD_VALUE>
42

> <STANDARD_UNITS>
nM

> <Molecular_Weight>
434.46282

$$$$

  SciTegic11272012012D

 43 47  0  0  0  0            999 V2000
    7.8485    4.3779    0.0000 C   0  0
    7.8508    3.7179    0.0000 N   0  0
    8.5667    3.3079    0.0000 C   0  0
    8.5696    2.4829    0.0000 C   0  0
    7.8566    2.0679    0.0000 N   0  0
    7.8578    1.2424    0.0000 C   0  0
    7.1438    0.8282    0.0000 C   0  0
    6.4293    1.2407    0.0000 C   0  0
    5.7149    0.8282    0.0000 C   0  0
    5.7148    0.0032    0.0000 C   0  0
    5.0008   -0.4110    0.0000 N   0  0
    5.0020   -1.2364    0.0000 C   0  0
    5.5742   -1.5655    0.0000 O   0  0
    4.2880   -1.6507    0.0000 C   0  0
    4.2880   -2.4756    0.0000 C   0  0
    3.5735   -2.8881    0.0000 C   0  0
    2.8590   -2.4756    0.0000 C   0  0
    2.2875   -2.8056    0.0000 C   0  0
    2.8590   -1.6507    0.0000 C   0  0
    3.5735   -1.2382    0.0000 C   0  0
    2.1442   -1.2379    0.0000 C   0  0
    1.4293   -0.8252    0.0000 C   0  0
    0.7144   -0.4125    0.0000 C   0  0
    0.7144    0.4125    0.0000 C   0  0
    0.0000    0.8250    0.0000 N   0  0
   -0.7144    0.4125    0.0000 C   0  0
   -1.4289    0.8250    0.0000 N   0  0
   -2.1434    0.4125    0.0000 C   0  0
   -2.7150    0.7425    0.0000 O   0  0
   -2.1434   -0.4125    0.0000 C   0  0
   -1.4289   -0.8250    0.0000 O   0  0
   -0.7144   -0.4125    0.0000 C   0  0
    0.0000   -0.8250    0.0000 C   0  0
    6.4294   -0.4093    0.0000 C   0  0
    7.1438    0.0032    0.0000 C   0  0
    7.8587   -0.4095    0.0000 C   0  0
    7.8591   -1.0695    0.0000 F   0  0
    8.4301   -0.0793    0.0000 F   0  0
    8.4304   -0.7392    0.0000 F   0  0
    7.1407    2.4780    0.0000 C   0  0
    7.1378    3.3030    0.0000 C   0  0
   -1.4289    1.3750    0.0000 H   0  0
    4.5241   -0.1368    0.0000 H   0  0
  1  2  1  0
  2  3  1  0
  3  4  1  0
  4  5  1  0
  5  6  1  0
  5 40  1  0
  6  7  1  0
  7  8  2  0
  8  9  1  0
  9 10  2  0
 10 11  1  0
 10 34  1  0
 11 12  1  0
 11 43  1  0
 12 13  2  0
 12 14  1  0
 14 15  2  0
 15 16  1  0
 16 17  2  0
 17 18  1  0
 17 19  1  0
 19 20  2  0
 19 21  1  0
 20 14  1  0
 21 22  3  0
 22 23  1  0
 23 24  2  0
 24 25  1  0
 25 26  2  0
 26 27  1  0
 27 28  1  0
 27 42  1  0
 28 29  2  0
 28 30  1  0
 30 31  1  0
 31 32  1  0
 32 26  1  0
 32 33  2  0
 33 23  1  0
 34 35  2  0
 35  7  1  0
 35 36  1  0
 36 37  1  0
 36 38  1  0
 36 39  1  0
 40 41  1  0
 41  2  1  0
M  END
> <CMPD_CHEMBLID>
CHEMBL1171247

> <STANDARD_TYPE>
IC50

> <RELATION>
=

> <STANDARD_VALUE>
42

> <STANDARD_UNITS>
nM

> <Molecular_Weight>
563.57023

$$$$

  SciTegic11272012012D

 24 27  0  0  0  0            999 V2000
    3.4305   -0.4984    0.0000 C   0  0
    2.8584   -0.8275    0.0000 C   0  0
    2.1446   -0.4139    0.0000 C   0  0
    1.4293   -0.8252    0.0000 C   0  0
    1.4281   -1.6503    0.0000 C   0  0
    2.1419   -2.0639    0.0000 C   0  0
    2.8570   -1.6525    0.0000 N   0  0
    0.7145   -0.4125    0.0000 C   0  0
    0.7145    0.4125    0.0000 C   0  0
    0.0000    0.8250    0.0000 C   0  0
   -0.7145    0.4125    0.0000 C   0  0
   -1.4290    0.8250    0.0000 C   0  0
   -2.1435    0.4125    0.0000 C   0  0
   -2.8592    0.8238    0.0000 N   0  0
   -3.5735    0.4100    0.0000 C   0  0
   -3.5723   -0.2500    0.0000 O   0  0
   -4.2892    0.8213    0.0000 C   0  0
   -5.0707    0.7961    0.0000 C   0  0
   -4.6582    1.5106    0.0000 C   0  0
   -2.1435   -0.4125    0.0000 N   0  0
   -1.4290   -0.8250    0.0000 C   0  0
   -0.7145   -0.4125    0.0000 C   0  0
    0.0000   -0.8250    0.0000 C   0  0
   -2.8602    1.3738    0.0000 H   0  0
  1  2  1  0
  2  3  2  0
  3  4  1  0
  4  5  2  0
  4  8  1  0
  5  6  1  0
  6  7  2  0
  7  2  1  0
  8  9  2  0
  9 10  1  0
 10 11  2  0
 11 12  1  0
 12 13  2  0
 13 14  1  0
 13 20  1  0
 14 15  1  0
 14 24  1  0
 15 16  2  0
 15 17  1  0
 17 18  1  0
 18 19  1  0
 19 17  1  0
 20 21  2  0
 21 22  1  0
 22 11  1  0
 22 23  2  0
 23  8  1  0
M  END
> <CMPD_CHEMBLID>
CHEMBL3685131

> <STANDARD_TYPE>
Ki

> <RELATION>
=

> <STANDARD_VALUE>
42

> <STANDARD_UNITS>
nM

> <Molecular_Weight>
303.35778

$$$$

  SciTegic11272012012D

 26 29  0  0  0  0            999 V2000
    2.1456    0.2461    0.0000 C   0  0
    2.1445   -0.4139    0.0000 C   0  0
    2.8583   -0.8275    0.0000 C   0  0
    2.8570   -1.6525    0.0000 C   0  0
    2.1419   -2.0639    0.0000 C   0  0
    2.1408   -2.7239    0.0000 F   0  0
    1.4281   -1.6502    0.0000 C   0  0
    1.4293   -0.8252    0.0000 C   0  0
    0.7145   -0.4125    0.0000 C   0  0
    0.7145    0.4125    0.0000 C   0  0
    0.0000    0.8250    0.0000 C   0  0
   -0.7145    0.4125    0.0000 C   0  0
   -1.4290    0.8250    0.0000 C   0  0
   -2.1434    0.4125    0.0000 C   0  0
   -2.8592    0.8237    0.0000 N   0  0
   -3.5735    0.4100    0.0000 S   0  0
   -3.5723   -0.2500    0.0000 O   0  0
   -3.0013    0.0809    0.0000 O   0  0
   -4.2892    0.8213    0.0000 C   0  0
   -5.0706    0.7945    0.0000 C   0  0
   -4.6595    1.5098    0.0000 C   0  0
   -2.1434   -0.4125    0.0000 N   0  0
   -1.4290   -0.8250    0.0000 C   0  0
   -0.7145   -0.4125    0.0000 C   0  0
    0.0000   -0.8250    0.0000 C   0  0
   -2.8601    1.3738    0.0000 H   0  0
  1  2  1  0
  2  3  2  0
  3  4  1  0
  4  5  2  0
  5  6  1  0
  5  7  1  0
  7  8  2  0
  8  2  1  0
  8  9  1  0
  9 10  2  0
 10 11  1  0
 11 12  2  0
 12 13  1  0
 13 14  2  0
 14 15  1  0
 14 22  1  0
 15 16  1  0
 15 26  1  0
 16 17  2  0
 16 18  2  0
 16 19  1  0
 19 20  1  0
 20 21  1  0
 21 19  1  0
 22 23  2  0
 23 24  1  0
 24 12  1  0
 24 25  2  0
 25  9  1  0
M  END
> <CMPD_CHEMBLID>
CHEMBL3685071

> <STANDARD_TYPE>
Ki

> <RELATION>
=

> <STANDARD_VALUE>
42

> <STANDARD_UNITS>
nM

> <Molecular_Weight>
356.41388

$$$$

  SciTegic11272012012D

 34 38  0  0  0  0            999 V2000
    2.1455    0.2461    0.0000 C   0  0
    2.1445   -0.4139    0.0000 C   0  0
    2.8583   -0.8275    0.0000 C   0  0
    3.5747   -0.4174    0.0000 N   0  0
    4.2883   -0.8323    0.0000 C   0  0
    4.2861   -1.4923    0.0000 O   0  0
    5.0047   -0.4221    0.0000 C   0  0
    5.7185   -0.8357    0.0000 C   0  0
    6.4336   -0.4244    0.0000 C   0  0
    6.4349    0.4006    0.0000 O   0  0
    5.7212    0.8143    0.0000 C   0  0
    5.0060    0.4029    0.0000 C   0  0
    2.8570   -1.6525    0.0000 C   0  0
    2.1419   -2.0639    0.0000 N   0  0
    1.4281   -1.6502    0.0000 C   0  0
    1.4293   -0.8252    0.0000 C   0  0
    0.7144   -0.4125    0.0000 C   0  0
    0.7144    0.4125    0.0000 C   0  0
    0.0000    0.8250    0.0000 C   0  0
   -0.7144    0.4125    0.0000 C   0  0
   -1.4290    0.8250    0.0000 C   0  0
   -2.1434    0.4125    0.0000 C   0  0
   -2.8591    0.8237    0.0000 N   0  0
   -3.5734    0.4100    0.0000 C   0  0
   -3.5722   -0.2500    0.0000 O   0  0
   -4.2891    0.8213    0.0000 C   0  0
   -5.0706    0.7961    0.0000 C   0  0
   -4.6581    1.5106    0.0000 C   0  0
   -2.1434   -0.4125    0.0000 N   0  0
   -1.4290   -0.8250    0.0000 C   0  0
   -0.7144   -0.4125    0.0000 C   0  0
    0.0000   -0.8250    0.0000 C   0  0
   -2.8601    1.3737    0.0000 H   0  0
    3.5765    0.1326    0.0000 H   0  0
  1  2  1  0
  2  3  2  0
  3  4  1  0
  3 13  1  0
  4  5  1  0
  4 34  1  0
  5  6  2  0
  5  7  1  0
  7  8  1  0
  8  9  1  0
  9 10  1  0
 10 11  1  0
 11 12  1  0
 12  7  1  0
 13 14  2  0
 14 15  1  0
 15 16  2  0
 16  2  1  0
 16 17  1  0
 17 18  2  0
 18 19  1  0
 19 20  2  0
 20 21  1  0
 21 22  2  0
 22 23  1  0
 22 29  1  0
 23 24  1  0
 23 33  1  0
 24 25  2  0
 24 26  1  0
 26 27  1  0
 27 28  1  0
 28 26  1  0
 29 30  2  0
 30 31  1  0
 31 20  1  0
 31 32  2  0
 32 17  1  0
M  END
> <CMPD_CHEMBLID>
CHEMBL3689561

> <STANDARD_TYPE>
Ki

> <RELATION>
=

> <STANDARD_VALUE>
42

> <STANDARD_UNITS>
nM

> <Molecular_Weight>
430.49894

$$$$

  SciTegic11272012012D

 24 27  0  0  0  0            999 V2000
    0.8551   -1.9812    0.0000 O   0  0
    1.4273   -1.6521    0.0000 C   0  0
    1.4285   -0.8267    0.0000 N   0  0
    0.7144   -0.4125    0.0000 C   0  0
    0.7144    0.4125    0.0000 C   0  0
    0.0000    0.8250    0.0000 C   0  0
    0.0000    1.6500    0.0000 C   0  0
   -0.7145    2.0625    0.0000 C   0  0
   -1.4290    1.6500    0.0000 C   0  0
   -2.1447    2.0612    0.0000 O   0  0
   -2.8590    1.6475    0.0000 C   0  0
   -3.5749    2.0575    0.0000 C   0  0
   -4.2879    1.6425    0.0000 N   0  0
   -4.2851    0.8175    0.0000 C   0  0
   -3.5692    0.4075    0.0000 N   0  0
   -2.8561    0.8225    0.0000 C   0  0
   -1.4290    0.8250    0.0000 C   0  0
   -0.7144    0.4125    0.0000 C   0  0
   -0.7144   -0.4125    0.0000 C   0  0
    0.0000   -0.8250    0.0000 N   0  0
    2.1413   -2.0663    0.0000 C   0  0
    2.5103   -2.7557    0.0000 C   0  0
    2.9228   -2.0412    0.0000 C   0  0
    1.9053   -0.5525    0.0000 H   0  0
  1  2  2  0
  2  3  1  0
  2 21  1  0
  3  4  1  0
  3 24  1  0
  4  5  2  0
  5  6  1  0
  6  7  2  0
  7  8  1  0
  8  9  2  0
  9 10  1  0
  9 17  1  0
 10 11  1  0
 11 12  2  0
 12 13  1  0
 13 14  2  0
 14 15  1  0
 15 16  2  0
 16 11  1  0
 17 18  2  0
 18  6  1  0
 18 19  1  0
 19 20  2  0
 20  4  1  0
 21 22  1  0
 22 23  1  0
 23 21  1  0
M  END
> <CMPD_CHEMBLID>
CHEMBL3685122

> <STANDARD_TYPE>
Ki

> <RELATION>
=

> <STANDARD_VALUE>
42

> <STANDARD_UNITS>
nM

> <Molecular_Weight>
306.31866

$$$$

  SciTegic11272012012D

 24 27  0  0  0  0            999 V2000
    3.4281   -1.9835    0.0000 C   0  0
    2.8570   -1.6525    0.0000 C   0  0
    2.8584   -0.8275    0.0000 C   0  0
    2.1446   -0.4139    0.0000 N   0  0
    1.4293   -0.8252    0.0000 C   0  0
    1.4281   -1.6503    0.0000 C   0  0
    2.1419   -2.0639    0.0000 N   0  0
    0.7145   -0.4125    0.0000 C   0  0
    0.7145    0.4125    0.0000 C   0  0
    0.0000    0.8250    0.0000 C   0  0
   -0.7145    0.4125    0.0000 C   0  0
   -1.4290    0.8250    0.0000 C   0  0
   -2.1435    0.4125    0.0000 C   0  0
   -2.8592    0.8238    0.0000 N   0  0
   -3.5735    0.4100    0.0000 C   0  0
   -3.5723   -0.2500    0.0000 O   0  0
   -4.2892    0.8213    0.0000 C   0  0
   -5.0707    0.7961    0.0000 C   0  0
   -4.6582    1.5106    0.0000 C   0  0
   -2.1435   -0.4125    0.0000 N   0  0
   -1.4290   -0.8250    0.0000 C   0  0
   -0.7145   -0.4125    0.0000 C   0  0
    0.0000   -0.8250    0.0000 C   0  0
   -2.8602    1.3738    0.0000 H   0  0
  1  2  1  0
  2  3  2  0
  3  4  1  0
  4  5  2  0
  5  6  1  0
  5  8  1  0
  6  7  2  0
  7  2  1  0
  8  9  2  0
  9 10  1  0
 10 11  2  0
 11 12  1  0
 12 13  2  0
 13 14  1  0
 13 20  1  0
 14 15  1  0
 14 24  1  0
 15 16  2  0
 15 17  1  0
 17 18  1  0
 18 19  1  0
 19 17  1  0
 20 21  2  0
 21 22  1  0
 22 11  1  0
 22 23  2  0
 23  8  1  0
M  END
> <CMPD_CHEMBLID>
CHEMBL3685121

> <STANDARD_TYPE>
Ki

> <RELATION>
=

> <STANDARD_VALUE>
42

> <STANDARD_UNITS>
nM

> <Molecular_Weight>
304.34584

$$$$

  SciTegic11272012012D

 25 28  0  0  0  0            999 V2000
    2.1409   -2.7239    0.0000 C   0  0
    2.1419   -2.0639    0.0000 N   0  0
    2.8570   -1.6525    0.0000 C   0  0
    2.8583   -0.8275    0.0000 C   0  0
    2.1445   -0.4139    0.0000 C   0  0
    2.1456    0.2461    0.0000 O   0  0
    1.4293   -0.8252    0.0000 C   0  0
    1.4281   -1.6502    0.0000 C   0  0
    0.7145   -0.4125    0.0000 C   0  0
    0.7145    0.4125    0.0000 C   0  0
    0.0000    0.8250    0.0000 C   0  0
   -0.7145    0.4125    0.0000 C   0  0
   -1.4290    0.8250    0.0000 C   0  0
   -2.1434    0.4125    0.0000 C   0  0
   -2.8592    0.8237    0.0000 N   0  0
   -3.5735    0.4100    0.0000 C   0  0
   -3.5723   -0.2500    0.0000 O   0  0
   -4.2892    0.8213    0.0000 C   0  0
   -5.0707    0.7961    0.0000 C   0  0
   -4.6581    1.5106    0.0000 C   0  0
   -2.1434   -0.4125    0.0000 N   0  0
   -1.4290   -0.8250    0.0000 C   0  0
   -0.7145   -0.4125    0.0000 C   0  0
    0.0000   -0.8250    0.0000 C   0  0
   -2.8602    1.3738    0.0000 H   0  0
  1  2  1  0
  2  3  1  0
  3  4  2  0
  4  5  1  0
  5  6  2  0
  5  7  1  0
  7  8  2  0
  7  9  1  0
  8  2  1  0
  9 10  2  0
 10 11  1  0
 11 12  2  0
 12 13  1  0
 13 14  2  0
 14 15  1  0
 14 21  1  0
 15 16  1  0
 15 25  1  0
 16 17  2  0
 16 18  1  0
 18 19  1  0
 19 20  1  0
 20 18  1  0
 21 22  2  0
 22 23  1  0
 23 12  1  0
 23 24  2  0
 24  9  1  0
M  END
> <CMPD_CHEMBLID>
CHEMBL3685064

> <STANDARD_TYPE>
Ki

> <RELATION>
=

> <STANDARD_VALUE>
42

> <STANDARD_UNITS>
nM

> <Molecular_Weight>
319.35718

$$$$

  SciTegic11272012012D

 32 35  0  0  0  0            999 V2000
    1.2861   -0.7425    0.0000 C   0  0
    0.7144   -0.4125    0.0000 C   0  0
    0.7144    0.4125    0.0000 C   0  0
    0.0000    0.8250    0.0000 C   0  0
   -0.7144    0.4125    0.0000 C   0  0
   -1.4302    0.8237    0.0000 N   0  0
   -2.1444    0.4100    0.0000 C   0  0
   -2.1433   -0.2500    0.0000 O   0  0
   -2.8602    0.8213    0.0000 C   0  0
   -3.5747    0.4088    0.0000 C   0  0
   -4.2892    0.8213    0.0000 C   0  0
   -4.2892    1.6463    0.0000 C   0  0
   -3.5747    2.0588    0.0000 C   0  0
   -2.8602    1.6463    0.0000 C   0  0
   -5.0041    2.0590    0.0000 C   0  0
   -5.5758    1.7293    0.0000 F   0  0
   -5.0038    2.7190    0.0000 F   0  0
   -5.5755    2.3892    0.0000 F   0  0
   -0.7144   -0.4125    0.0000 C   0  0
    0.0000   -0.8250    0.0000 C   0  0
    0.0000   -1.6504    0.0000 N   0  0
   -0.6667   -2.1244    0.0000 C   0  0
   -0.4105   -2.9086    0.0000 C   0  0
    0.4145   -2.9073    0.0000 C   0  0
    0.6682   -2.1223    0.0000 N   0  0
   -0.8946   -3.5771    0.0000 C   0  0
   -1.7165   -3.5538    0.0000 C   0  0
   -2.1487   -4.2565    0.0000 C   0  0
   -1.7563   -4.9822    0.0000 C   0  0
   -0.9316   -5.0051    0.0000 N   0  0
   -0.4994   -4.3024    0.0000 C   0  0
   -1.4312    1.3737    0.0000 H   0  0
  1  2  1  0
  2  3  2  0
  3  4  1  0
  4  5  2  0
  5  6  1  0
  5 19  1  0
  6  7  1  0
  6 32  1  0
  7  8  2  0
  7  9  1  0
  9 10  2  0
 10 11  1  0
 11 12  2  0
 12 13  1  0
 12 15  1  0
 13 14  2  0
 14  9  1  0
 15 16  1  0
 15 17  1  0
 15 18  1  0
 19 20  2  0
 20  2  1  0
 20 21  1  0
 21 22  1  0
 22 23  2  0
 23 24  1  0
 23 26  1  0
 24 25  2  0
 25 21  1  0
 26 27  2  0
 27 28  1  0
 28 29  2  0
 29 30  1  0
 30 31  2  0
 31 26  1  0
M  END
> <CMPD_CHEMBLID>
CHEMBL3597609

> <STANDARD_TYPE>
IC50

> <RELATION>
=

> <STANDARD_VALUE>
43.27

> <STANDARD_UNITS>
nM

> <Molecular_Weight>
422.40249

$$$$

  SciTegic11272012012D

 36 40  0  0  0  0            999 V2000
    2.0013   -0.4930    0.0000 C   0  0
    1.4302   -0.8237    0.0000 O   0  0
    0.7144   -0.4125    0.0000 C   0  0
    0.7144    0.4125    0.0000 C   0  0
    0.0000    0.8250    0.0000 C   0  0
    0.0000    1.6500    0.0000 C   0  0
    0.7140    2.0642    0.0000 N   0  0
    0.7128    2.8896    0.0000 C   0  0
    0.2979    3.5524    0.0000 C   0  0
    1.1229    3.5553    0.0000 C   0  0
    1.8429    3.9590    0.0000 C   0  0
    2.6462    3.8300    0.0000 C   0  0
    3.1675    4.4694    0.0000 C   0  0
    2.8744    5.2406    0.0000 C   0  0
    2.0600    5.3723    0.0000 C   0  0
    1.5387    4.7330    0.0000 C   0  0
   -0.7145    2.0625    0.0000 C   0  0
   -1.4290    1.6500    0.0000 C   0  0
   -1.4290    0.8250    0.0000 N   0  0
   -0.7144    0.4125    0.0000 C   0  0
   -0.7144   -0.4125    0.0000 C   0  0
    0.0000   -0.8250    0.0000 C   0  0
   -0.0017   -1.6504    0.0000 O   0  0
   -0.7171   -2.0622    0.0000 C   0  0
   -0.7188   -2.8876    0.0000 C   0  0
   -1.4343   -3.2993    0.0000 C   0  0
   -1.4360   -4.1248    0.0000 N   0  0
   -2.1504   -4.5373    0.0000 C   0  0
   -2.1504   -5.3623    0.0000 C   0  0
   -1.4360   -5.7748    0.0000 N   0  0
   -1.4360   -6.4348    0.0000 C   0  0
   -0.7215   -5.3623    0.0000 C   0  0
   -0.7215   -4.5373    0.0000 C   0  0
   -0.7145    2.8879    0.0000 C   0  0
   -0.7145    3.5479    0.0000 N   0  0
    1.1908    1.7900    0.0000 H   0  0
  1  2  1  0
  2  3  1  0
  3  4  2  0
  4  5  1  0
  5  6  2  0
  6  7  1  0
  6 17  1  0
  7  8  1  0
  7 36  1  0
  8  9  1  0
  9 10  1  0
 10  8  1  0
 10 11  1  0
 11 12  2  0
 12 13  1  0
 13 14  2  0
 14 15  1  0
 15 16  2  0
 16 11  1  0
 17 18  2  0
 17 34  1  0
 18 19  1  0
 19 20  2  0
 20  5  1  0
 20 21  1  0
 21 22  2  0
 22  3  1  0
 22 23  1  0
 23 24  1  0
 24 25  1  0
 25 26  1  0
 26 27  1  0
 27 28  1  0
 28 29  1  0
 29 30  1  0
 30 31  1  0
 30 32  1  0
 32 33  1  0
 33 27  1  0
 34 35  3  0
M  END
> <CMPD_CHEMBLID>
CHEMBL248393

> <STANDARD_TYPE>
Ki

> <RELATION>
=

> <STANDARD_VALUE>
44

> <STANDARD_UNITS>
nM

> <Molecular_Weight>
471.59392

$$$$

  SciTegic11272012012D

 25 27  0  0  0  0            999 V2000
    1.2861   -0.7425    0.0000 F   0  0
    0.7145   -0.4125    0.0000 C   0  0
    0.7145    0.4125    0.0000 C   0  0
    0.0000    0.8250    0.0000 C   0  0
   -0.7145    0.4125    0.0000 C   0  0
   -1.4302    0.8237    0.0000 C   0  0
   -2.1445    0.4100    0.0000 S   0  0
   -2.8602    0.8213    0.0000 C   0  0
   -3.6035    0.4797    0.0000 N   0  0
   -4.1555    1.0928    0.0000 N   0  0
   -3.7430    1.8073    0.0000 C   0  0
   -4.0766    2.5608    0.0000 N   0  0
   -3.5905    3.2279    0.0000 C   0  0
   -2.9342    3.1577    0.0000 O   0  0
   -3.9247    3.9827    0.0000 C   0  0
   -3.4397    4.6501    0.0000 C   0  0
   -3.7753    5.4038    0.0000 C   0  0
   -4.5958    5.4901    0.0000 C   0  0
   -4.8642    6.0930    0.0000 F   0  0
   -5.0807    4.8226    0.0000 C   0  0
   -4.7451    4.0690    0.0000 C   0  0
   -2.9360    1.6358    0.0000 S   0  0
   -0.7145   -0.4125    0.0000 C   0  0
    0.0000   -0.8250    0.0000 C   0  0
   -4.6235    2.6192    0.0000 H   0  0
  1  2  1  0
  2  3  2  0
  3  4  1  0
  4  5  2  0
  5  6  1  0
  5 23  1  0
  6  7  1  0
  7  8  1  0
  8  9  2  0
  9 10  1  0
 10 11  2  0
 11 12  1  0
 11 22  1  0
 12 13  1  0
 12 25  1  0
 13 14  2  0
 13 15  1  0
 15 16  2  0
 16 17  1  0
 17 18  2  0
 18 19  1  0
 18 20  1  0
 20 21  2  0
 21 15  1  0
 22  8  1  0
 23 24  2  0
 24  2  1  0
M  END
> <CMPD_CHEMBLID>
CHEMBL255738

> <STANDARD_TYPE>
Ki

> <RELATION>
=

> <STANDARD_VALUE>
44

> <STANDARD_UNITS>
nM

> <Molecular_Weight>
363.40485

$$$$

  SciTegic11272012012D

 26 29  0  0  0  0            999 V2000
    1.4302   -0.8237    0.0000 N   0  0
    0.7145   -0.4125    0.0000 C   0  0
    0.7145    0.4125    0.0000 N   0  0
    0.0000    0.8250    0.0000 C   0  0
   -0.7145    0.4125    0.0000 N   0  0
   -0.7145   -0.4125    0.0000 C   0  0
    0.0000   -0.8250    0.0000 C   0  0
   -0.1713   -1.6316    0.0000 C   0  0
   -0.9918   -1.7178    0.0000 N   0  0
   -1.3273   -0.9642    0.0000 N   0  0
   -2.1348   -0.7925    0.0000 C   0  0
   -2.7753   -1.2969    0.0000 C   0  0
   -3.4553   -0.8297    0.0000 C   0  0
   -3.2211   -0.0386    0.0000 C   0  0
   -2.3964   -0.0169    0.0000 C   0  0
    0.3811   -2.2450    0.0000 C   0  0
    1.1959   -2.1345    0.0000 C   0  0
    1.7002   -2.7874    0.0000 C   0  0
    1.3870   -3.5506    0.0000 C   0  0
    1.7905   -4.0729    0.0000 Br  0  0
    0.5694   -3.6610    0.0000 C   0  0
    0.2544   -4.4240    0.0000 O   0  0
    0.0651   -3.0081    0.0000 C   0  0
   -0.2907   -4.4968    0.0000 H   0  0
    1.9062   -0.5481    0.0000 H   0  0
    1.4312   -1.3738    0.0000 H   0  0
  1  2  1  0
  1 25  1  0
  1 26  1  0
  2  3  2  0
  3  4  1  0
  4  5  2  0
  5  6  1  0
  6  7  2  0
  7  2  1  0
  7  8  1  0
  8  9  2  0
  8 16  1  0
  9 10  1  0
 10  6  1  0
 10 11  1  0
 11 12  1  0
 12 13  1  0
 13 14  1  0
 14 15  1  0
 15 11  1  0
 16 17  2  0
 17 18  1  0
 18 19  2  0
 19 20  1  0
 19 21  1  0
 21 22  1  0
 21 23  2  0
 22 24  1  0
 23 16  1  0
M  END
> <CMPD_CHEMBLID>
CHEMBL1242376

> <STANDARD_TYPE>
IC50

> <RELATION>
=

> <STANDARD_VALUE>
45

> <STANDARD_UNITS>
nM

> <Molecular_Weight>
374.23514

$$$$

  SciTegic11272012012D

 41 45  0  0  0  0            999 V2000
   -3.6408    0.3253    0.0000 C   0  0
   -4.3008    0.3281    0.0000 N   0  0
   -4.6281    0.9012    0.0000 C   0  0
   -4.7170   -0.3848    0.0000 C   0  0
   -5.5410   -0.3813    0.0000 C   0  0
   -6.0268    0.2855    0.0000 N   0  0
   -6.8111    0.0295    0.0000 C   0  0
   -6.8100   -0.7955    0.0000 C   0  0
   -6.0287   -1.0380    0.0000 N   0  0
   -5.7738   -1.8230    0.0000 C   0  0
   -4.9669   -1.9947    0.0000 C   0  0
   -4.7121   -2.7794    0.0000 C   0  0
   -3.9051   -2.9528    0.0000 N   0  0
   -3.6512   -3.7383    0.0000 C   0  0
   -4.0938   -4.2280    0.0000 O   0  0
   -2.8442   -3.9118    0.0000 C   0  0
   -2.5895   -4.6964    0.0000 C   0  0
   -1.7825   -4.8682    0.0000 C   0  0
   -1.2303   -4.2551    0.0000 C   0  0
   -0.5848   -4.3925    0.0000 C   0  0
   -1.4851   -3.4705    0.0000 C   0  0
   -2.2921   -3.2988    0.0000 C   0  0
   -0.9327   -2.8571    0.0000 C   0  0
   -0.3802   -2.2438    0.0000 C   0  0
    0.1713   -1.6316    0.0000 C   0  0
    0.9918   -1.7178    0.0000 C   0  0
    1.3273   -0.9641    0.0000 N   0  0
    0.7144   -0.4125    0.0000 C   0  0
    0.7144    0.4125    0.0000 C   0  0
    0.0000    0.8250    0.0000 C   0  0
   -0.7144    0.4125    0.0000 C   0  0
   -0.7144   -0.4125    0.0000 C   0  0
    0.0000   -0.8250    0.0000 N   0  0
   -5.2643   -3.3924    0.0000 C   0  0
   -6.0712   -3.2207    0.0000 C   0  0
   -6.3260   -2.4360    0.0000 C   0  0
   -6.6237   -3.8340    0.0000 C   0  0
   -6.4203   -4.4619    0.0000 F   0  0
   -7.2692   -3.6964    0.0000 F   0  0
   -7.0657   -4.3242    0.0000 F   0  0
   -3.5362   -2.5448    0.0000 H   0  0
  1  2  1  0
  2  3  1  0
  2  4  1  0
  4  5  1  0
  5  6  2  0
  6  7  1  0
  7  8  2  0
  8  9  1  0
  9  5  1  0
  9 10  1  0
 10 11  2  0
 11 12  1  0
 12 13  1  0
 12 34  2  0
 13 14  1  0
 13 41  1  0
 14 15  2  0
 14 16  1  0
 16 17  2  0
 17 18  1  0
 18 19  2  0
 19 20  1  0
 19 21  1  0
 21 22  2  0
 21 23  1  0
 22 16  1  0
 23 24  3  0
 24 25  1  0
 25 26  2  0
 26 27  1  0
 27 28  2  0
 28 29  1  0
 29 30  2  0
 30 31  1  0
 31 32  2  0
 32 33  1  0
 33 25  1  0
 33 28  1  0
 34 35  1  0
 35 36  2  0
 35 37  1  0
 36 10  1  0
 37 38  1  0
 37 39  1  0
 37 40  1  0
M  END
> <CMPD_CHEMBLID>
CHEMBL1171085

> <STANDARD_TYPE>
IC50

> <RELATION>
=

> <STANDARD_VALUE>
45

> <STANDARD_UNITS>
nM

> <Molecular_Weight>
542.55431

$$$$

  SciTegic11272012012D

 30 33  0  0  0  0            999 V2000
    1.4276   -1.4867    0.0000 C   0  0
    1.4285   -0.8267    0.0000 O   0  0
    0.7144   -0.4125    0.0000 C   0  0
    0.7144    0.4125    0.0000 C   0  0
    0.0000    0.8250    0.0000 C   0  0
   -0.7144    0.4125    0.0000 C   0  0
   -0.7144   -0.4125    0.0000 C   0  0
    0.0000   -0.8250    0.0000 C   0  0
   -1.4302    0.8237    0.0000 C   0  0
   -1.4313    1.4837    0.0000 O   0  0
   -2.1444    0.4100    0.0000 N   0  0
   -2.8602    0.8213    0.0000 C   0  0
   -3.5747    0.4088    0.0000 C   0  0
   -4.2892    0.8213    0.0000 C   0  0
   -4.2892    1.6463    0.0000 C   0  0
   -4.8608    1.9763    0.0000 C   0  0
   -3.5747    2.0588    0.0000 C   0  0
   -2.8602    1.6463    0.0000 C   0  0
   -3.5747    2.8842    0.0000 N   0  0
   -4.2414    3.3581    0.0000 C   0  0
   -3.9853    4.1424    0.0000 C   0  0
   -3.1603    4.1411    0.0000 C   0  0
   -2.9066    3.3560    0.0000 N   0  0
   -4.4694    4.8109    0.0000 C   0  0
   -5.2913    4.7875    0.0000 C   0  0
   -5.7236    5.4902    0.0000 C   0  0
   -5.3311    6.2159    0.0000 C   0  0
   -4.5064    6.2389    0.0000 N   0  0
   -4.0742    5.5361    0.0000 C   0  0
   -2.1435   -0.1400    0.0000 H   0  0
  1  2  1  0
  2  3  1  0
  3  4  2  0
  4  5  1  0
  5  6  2  0
  6  7  1  0
  6  9  1  0
  7  8  2  0
  8  3  1  0
  9 10  2  0
  9 11  1  0
 11 12  1  0
 11 30  1  0
 12 13  2  0
 13 14  1  0
 14 15  2  0
 15 16  1  0
 15 17  1  0
 17 18  2  0
 17 19  1  0
 18 12  1  0
 19 20  1  0
 20 21  2  0
 21 22  1  0
 21 24  1  0
 22 23  2  0
 23 19  1  0
 24 25  2  0
 25 26  1  0
 26 27  2  0
 27 28  1  0
 28 29  2  0
 29 24  1  0
M  END
> <CMPD_CHEMBLID>
CHEMBL3597610

> <STANDARD_TYPE>
IC50

> <RELATION>
=

> <STANDARD_VALUE>
46.2

> <STANDARD_UNITS>
nM

> <Molecular_Weight>
384.4305

$$$$

  SciTegic11272012012D

 25 27  0  0  0  0            999 V2000
    1.2861   -0.7425    0.0000 Cl  0  0
    0.7145   -0.4125    0.0000 C   0  0
    0.7145    0.4125    0.0000 C   0  0
    0.0000    0.8250    0.0000 C   0  0
   -0.7145    0.4125    0.0000 C   0  0
   -0.7145   -0.4125    0.0000 C   0  0
    0.0000   -0.8250    0.0000 C   0  0
   -1.4302    0.8237    0.0000 C   0  0
   -1.4313    1.4837    0.0000 O   0  0
   -2.1445    0.4100    0.0000 N   0  0
   -2.8602    0.8213    0.0000 C   0  0
   -3.6035    0.4797    0.0000 N   0  0
   -4.1555    1.0928    0.0000 N   0  0
   -3.7430    1.8073    0.0000 C   0  0
   -4.0766    2.5608    0.0000 S   0  0
   -3.5905    3.2279    0.0000 C   0  0
   -3.9247    3.9827    0.0000 C   0  0
   -3.4397    4.6501    0.0000 C   0  0
   -3.7753    5.4038    0.0000 C   0  0
   -4.5958    5.4901    0.0000 C   0  0
   -4.8642    6.0930    0.0000 Br  0  0
   -5.0807    4.8226    0.0000 C   0  0
   -4.7451    4.0690    0.0000 C   0  0
   -2.9360    1.6358    0.0000 S   0  0
   -2.1435   -0.1400    0.0000 H   0  0
  1  2  1  0
  2  3  2  0
  3  4  1  0
  4  5  2  0
  5  6  1  0
  5  8  1  0
  6  7  2  0
  7  2  1  0
  8  9  2  0
  8 10  1  0
 10 11  1  0
 10 25  1  0
 11 12  2  0
 12 13  1  0
 13 14  2  0
 14 15  1  0
 14 24  1  0
 15 16  1  0
 16 17  1  0
 17 18  2  0
 18 19  1  0
 19 20  2  0
 20 21  1  0
 20 22  1  0
 22 23  2  0
 23 17  1  0
 24 11  1  0
M  END
> <CMPD_CHEMBLID>
CHEMBL403731

> <STANDARD_TYPE>
Ki

> <RELATION>
=

> <STANDARD_VALUE>
47

> <STANDARD_UNITS>
nM

> <Molecular_Weight>
440.76504

$$$$

  SciTegic11272012012D

 38 42  0  0  0  0            999 V2000
   -5.0129    0.7395    0.0000 C   0  0
   -5.2160    0.1116    0.0000 C   0  0
   -4.7301   -0.5552    0.0000 C   0  0
   -5.2178   -1.2119    0.0000 N   0  0
   -5.9991   -0.9695    0.0000 C   0  0
   -6.0002   -0.1445    0.0000 N   0  0
   -4.9629   -1.9969    0.0000 C   0  0
   -4.1560   -2.1686    0.0000 C   0  0
   -3.9011   -2.9533    0.0000 C   0  0
   -3.0941   -3.1267    0.0000 N   0  0
   -2.8402   -3.9121    0.0000 C   0  0
   -3.2828   -4.4018    0.0000 O   0  0
   -2.0332   -4.0856    0.0000 C   0  0
   -1.7784   -4.8702    0.0000 C   0  0
   -0.9714   -5.0419    0.0000 C   0  0
   -0.4193   -4.4289    0.0000 C   0  0
    0.2263   -4.5662    0.0000 C   0  0
   -0.6741   -3.6442    0.0000 C   0  0
   -0.1229   -3.0297    0.0000 C   0  0
   -0.3789   -2.2450    0.0000 C   0  0
    0.1713   -1.6316    0.0000 N   0  0
    0.9918   -1.7178    0.0000 C   0  0
    1.3273   -0.9641    0.0000 N   0  0
    0.7144   -0.4125    0.0000 C   0  0
    0.7144    0.4125    0.0000 C   0  0
    0.0000    0.8250    0.0000 N   0  0
   -0.7144    0.4125    0.0000 C   0  0
   -0.7144   -0.4125    0.0000 N   0  0
    0.0000   -0.8250    0.0000 C   0  0
   -1.4810   -3.4726    0.0000 C   0  0
   -4.4533   -3.5663    0.0000 C   0  0
   -5.2602   -3.3946    0.0000 C   0  0
   -5.5150   -2.6100    0.0000 C   0  0
   -5.8127   -4.0080    0.0000 C   0  0
   -5.6092   -4.6358    0.0000 F   0  0
   -6.4582   -3.8704    0.0000 F   0  0
   -6.2546   -4.4981    0.0000 F   0  0
   -2.7252   -2.7186    0.0000 H   0  0
  1  2  1  0
  2  3  2  0
  3  4  1  0
  4  5  1  0
  4  7  1  0
  5  6  2  0
  6  2  1  0
  7  8  2  0
  8  9  1  0
  9 10  1  0
  9 31  2  0
 10 11  1  0
 10 38  1  0
 11 12  2  0
 11 13  1  0
 13 14  2  0
 14 15  1  0
 15 16  2  0
 16 17  1  0
 16 18  1  0
 18 19  1  0
 18 30  2  0
 19 20  2  0
 20 21  1  0
 21 22  1  0
 22 23  2  0
 23 24  1  0
 24 25  2  0
 25 26  1  0
 26 27  2  0
 27 28  1  0
 28 29  2  0
 29 21  1  0
 29 24  1  0
 30 13  1  0
 31 32  1  0
 32 33  2  0
 32 34  1  0
 33  7  1  0
 34 35  1  0
 34 36  1  0
 34 37  1  0
M  END
> <CMPD_CHEMBLID>
CHEMBL559838

> <STANDARD_TYPE>
IC50

> <RELATION>
=

> <STANDARD_VALUE>
48

> <STANDARD_UNITS>
nM

> <Molecular_Weight>
503.47851

$$$$

  SciTegic11272012012D

 42 45  0  0  0  0            999 V2000
    1.2861   -0.7425    0.0000 C   0  0
    0.7144   -0.4125    0.0000 N   0  0
    0.7144    0.4125    0.0000 C   0  0
    0.0000    0.8250    0.0000 C   0  0
   -0.7144    0.4125    0.0000 N   0  0
   -1.4302    0.8237    0.0000 C   0  0
   -2.1444    0.4100    0.0000 C   0  0
   -2.1416   -0.4150    0.0000 C   0  0
   -2.8546   -0.8300    0.0000 C   0  0
   -3.5706   -0.4200    0.0000 C   0  0
   -4.2849   -0.8337    0.0000 N   0  0
   -5.0006   -0.4225    0.0000 C   0  0
   -5.0017    0.2375    0.0000 O   0  0
   -5.7149   -0.8362    0.0000 C   0  0
   -6.4307   -0.4261    0.0000 C   0  0
   -7.1438   -0.8411    0.0000 C   0  0
   -7.1409   -1.6661    0.0000 C   0  0
   -7.7114   -1.9980    0.0000 C   0  0
   -6.4251   -2.0761    0.0000 C   0  0
   -5.7120   -1.6612    0.0000 C   0  0
   -6.4223   -2.9016    0.0000 C   0  0
   -6.4194   -3.7270    0.0000 C   0  0
   -6.4166   -4.5524    0.0000 C   0  0
   -7.1296   -4.9674    0.0000 C   0  0
   -7.1268   -5.7924    0.0000 C   0  0
   -6.4109   -6.2024    0.0000 C   0  0
   -5.6979   -5.7875    0.0000 N   0  0
   -5.7007   -4.9625    0.0000 C   0  0
   -6.4064   -7.0279    0.0000 C   0  0
   -6.9762   -7.3608    0.0000 O   0  0
   -5.6895   -7.4371    0.0000 N   0  0
   -3.5734    0.4050    0.0000 C   0  0
   -2.8604    0.8200    0.0000 C   0  0
   -2.8633    1.6454    0.0000 C   0  0
   -3.4358    1.9738    0.0000 F   0  0
   -2.2927    1.9772    0.0000 F   0  0
   -2.8653    2.3054    0.0000 F   0  0
   -0.7144   -0.4125    0.0000 C   0  0
    0.0000   -0.8250    0.0000 C   0  0
   -5.6865   -7.9871    0.0000 H   0  0
   -5.2146   -7.1597    0.0000 H   0  0
   -4.2839   -1.3837    0.0000 H   0  0
  1  2  1  0
  2  3  1  0
  3  4  1  0
  4  5  1  0
  5  6  1  0
  5 38  1  0
  6  7  1  0
  7  8  2  0
  8  9  1  0
  9 10  2  0
 10 11  1  0
 10 32  1  0
 11 12  1  0
 11 42  1  0
 12 13  2  0
 12 14  1  0
 14 15  2  0
 15 16  1  0
 16 17  2  0
 17 18  1  0
 17 19  1  0
 19 20  2  0
 19 21  1  0
 20 14  1  0
 21 22  3  0
 22 23  1  0
 23 24  2  0
 24 25  1  0
 25 26  2  0
 26 27  1  0
 26 29  1  0
 27 28  2  0
 28 23  1  0
 29 30  2  0
 29 31  1  0
 31 40  1  0
 31 41  1  0
 32 33  2  0
 33  7  1  0
 33 34  1  0
 34 35  1  0
 34 36  1  0
 34 37  1  0
 38 39  1  0
 39  2  1  0
M  END
> <CMPD_CHEMBLID>
CHEMBL1784629

> <STANDARD_TYPE>
IC50

> <RELATION>
=

> <STANDARD_VALUE>
48.7

> <STANDARD_UNITS>
nM

> <Molecular_Weight>
535.56013

$$$$

  SciTegic11272012012D

 42 46  0  0  0  0            999 V2000
   -2.4959   -2.6711    0.0000 C   0  0
   -2.2921   -3.2988    0.0000 C   0  0
   -2.8442   -3.9117    0.0000 C   0  0
   -2.5894   -4.6964    0.0000 C   0  0
   -1.7825   -4.8681    0.0000 C   0  0
   -1.2303   -4.2551    0.0000 C   0  0
   -1.4851   -3.4705    0.0000 C   0  0
   -0.9327   -2.8571    0.0000 C   0  0
   -0.3802   -2.2438    0.0000 C   0  0
    0.1713   -1.6316    0.0000 C   0  0
    0.9918   -1.7178    0.0000 C   0  0
    1.3273   -0.9641    0.0000 N   0  0
    0.7144   -0.4125    0.0000 C   0  0
    0.7144    0.4125    0.0000 C   0  0
    0.0000    0.8250    0.0000 C   0  0
   -0.7144    0.4125    0.0000 C   0  0
   -0.7144   -0.4125    0.0000 C   0  0
    0.0000   -0.8250    0.0000 N   0  0
   -1.5260   -5.6527    0.0000 C   0  0
   -1.9668   -6.1438    0.0000 O   0  0
   -0.7184   -5.8233    0.0000 N   0  0
   -0.4618   -6.6079    0.0000 C   0  0
    0.3452   -6.7796    0.0000 C   0  0
    0.5999   -7.5643    0.0000 C   0  0
    0.0478   -8.1772    0.0000 C   0  0
    0.3044   -8.9618    0.0000 C   0  0
    1.1120   -9.1325    0.0000 N   0  0
    1.3695   -9.9162    0.0000 C   0  0
    2.1771  -10.0851    0.0000 C   0  0
    2.7271   -9.4702    0.0000 N   0  0
    3.5354   -9.6375    0.0000 C   0  0
    4.0849   -9.0215    0.0000 C   0  0
    4.7312   -9.1552    0.0000 F   0  0
    2.4696   -8.6864    0.0000 C   0  0
    1.6621   -8.5175    0.0000 C   0  0
   -0.7591   -8.0056    0.0000 C   0  0
   -1.0139   -7.2210    0.0000 C   0  0
   -1.3116   -8.6189    0.0000 C   0  0
   -1.1081   -9.2468    0.0000 F   0  0
   -1.9571   -8.4814    0.0000 F   0  0
   -1.7535   -9.1091    0.0000 F   0  0
   -0.3510   -5.4140    0.0000 H   0  0
  1  2  1  0
  2  3  2  0
  3  4  1  0
  4  5  2  0
  5  6  1  0
  5 19  1  0
  6  7  2  0
  7  2  1  0
  7  8  1  0
  8  9  3  0
  9 10  1  0
 10 11  2  0
 11 12  1  0
 12 13  2  0
 13 14  1  0
 14 15  2  0
 15 16  1  0
 16 17  2  0
 17 18  1  0
 18 10  1  0
 18 13  1  0
 19 20  2  0
 19 21  1  0
 21 22  1  0
 21 42  1  0
 22 23  2  0
 23 24  1  0
 24 25  2  0
 25 26  1  0
 25 36  1  0
 26 27  1  0
 27 28  1  0
 28 29  1  0
 29 30  1  0
 30 31  1  0
 30 34  1  0
 31 32  1  0
 32 33  1  0
 34 35  1  0
 35 27  1  0
 36 37  2  0
 36 38  1  0
 37 22  1  0
 38 39  1  0
 38 40  1  0
 38 41  1  0
M  END
> <CMPD_CHEMBLID>
CHEMBL1171045

> <STANDARD_TYPE>
IC50

> <RELATION>
=

> <STANDARD_VALUE>
49

> <STANDARD_UNITS>
nM

> <Molecular_Weight>
563.58847

$$$$

  SciTegic11272012012D

 42 46  0  0  0  0            999 V2000
    1.2861   -0.7425    0.0000 C   0  0
    0.7144   -0.4125    0.0000 N   0  0
    0.7144    0.4125    0.0000 C   0  0
    0.0000    0.8250    0.0000 C   0  0
   -0.7144    0.4125    0.0000 N   0  0
   -1.4302    0.8237    0.0000 C   0  0
   -2.1444    0.4100    0.0000 C   0  0
   -2.1416   -0.4150    0.0000 C   0  0
   -2.8546   -0.8300    0.0000 C   0  0
   -3.5706   -0.4200    0.0000 C   0  0
   -4.2849   -0.8337    0.0000 N   0  0
   -5.0006   -0.4225    0.0000 C   0  0
   -5.0017    0.2375    0.0000 O   0  0
   -5.7149   -0.8362    0.0000 C   0  0
   -6.4307   -0.4261    0.0000 C   0  0
   -7.1438   -0.8411    0.0000 C   0  0
   -7.1409   -1.6661    0.0000 C   0  0
   -7.7114   -1.9980    0.0000 C   0  0
   -6.4251   -2.0761    0.0000 C   0  0
   -5.7120   -1.6612    0.0000 C   0  0
   -6.4223   -2.9016    0.0000 C   0  0
   -6.4194   -3.7270    0.0000 C   0  0
   -6.4166   -4.5524    0.0000 C   0  0
   -7.1296   -4.9674    0.0000 C   0  0
   -7.1268   -5.7924    0.0000 N   0  0
   -6.4109   -6.2024    0.0000 C   0  0
   -6.4064   -7.0279    0.0000 N   0  0
   -5.6895   -7.4371    0.0000 C   0  0
   -5.3158   -8.1238    0.0000 C   0  0
   -4.9082   -7.4065    0.0000 C   0  0
   -5.6979   -5.7875    0.0000 N   0  0
   -5.7007   -4.9625    0.0000 C   0  0
   -3.5734    0.4050    0.0000 C   0  0
   -2.8604    0.8200    0.0000 C   0  0
   -2.8633    1.6454    0.0000 C   0  0
   -3.4358    1.9738    0.0000 F   0  0
   -2.2927    1.9772    0.0000 F   0  0
   -2.8653    2.3054    0.0000 F   0  0
   -0.7144   -0.4125    0.0000 C   0  0
    0.0000   -0.8250    0.0000 C   0  0
   -6.8812   -7.3053    0.0000 H   0  0
   -4.2839   -1.3837    0.0000 H   0  0
  1  2  1  0
  2  3  1  0
  3  4  1  0
  4  5  1  0
  5  6  1  0
  5 39  1  0
  6  7  1  0
  7  8  2  0
  8  9  1  0
  9 10  2  0
 10 11  1  0
 10 33  1  0
 11 12  1  0
 11 42  1  0
 12 13  2  0
 12 14  1  0
 14 15  2  0
 15 16  1  0
 16 17  2  0
 17 18  1  0
 17 19  1  0
 19 20  2  0
 19 21  1  0
 20 14  1  0
 21 22  3  0
 22 23  1  0
 23 24  2  0
 24 25  1  0
 25 26  2  0
 26 27  1  0
 26 31  1  0
 27 28  1  0
 27 41  1  0
 28 29  1  0
 29 30  1  0
 30 28  1  0
 31 32  2  0
 32 23  1  0
 33 34  2  0
 34  7  1  0
 34 35  1  0
 35 36  1  0
 35 37  1  0
 35 38  1  0
 39 40  1  0
 40  2  1  0
M  END
> <CMPD_CHEMBLID>
CHEMBL1784630

> <STANDARD_TYPE>
IC50

> <RELATION>
=

> <STANDARD_VALUE>
49.7

> <STANDARD_UNITS>
nM

> <Molecular_Weight>
548.60195

$$$$

  SciTegic11272012012D

 23 25  0  0  0  0            999 V2000
    1.2861   -0.7425    0.0000 Cl  0  0
    0.7145   -0.4125    0.0000 C   0  0
    0.7145    0.4125    0.0000 C   0  0
    0.0000    0.8250    0.0000 C   0  0
   -0.7145    0.4125    0.0000 C   0  0
   -1.2861    0.7425    0.0000 Cl  0  0
   -0.7145   -0.4125    0.0000 C   0  0
   -1.4285   -0.8267    0.0000 C   0  0
   -1.4273   -1.6522    0.0000 C   0  0
   -2.0931   -2.1274    0.0000 C   0  0
   -1.8354   -2.9112    0.0000 N   0  0
   -1.0104   -2.9083    0.0000 C   0  0
   -0.5224   -3.5723    0.0000 N   0  0
    0.2981   -3.4820    0.0000 C   0  0
    0.5634   -2.8776    0.0000 O   0  0
    0.7870   -4.1471    0.0000 C   0  0
    1.6049   -4.1345    0.0000 C   0  0
    1.8626   -4.9182    0.0000 C   0  0
    1.1969   -5.4055    0.0000 C   0  0
    0.5277   -4.9229    0.0000 S   0  0
   -0.7582   -2.1228    0.0000 S   0  0
    0.0000   -0.8250    0.0000 C   0  0
   -0.7435   -4.0759    0.0000 H   0  0
  1  2  1  0
  2  3  2  0
  3  4  1  0
  4  5  2  0
  5  6  1  0
  5  7  1  0
  7  8  1  0
  7 22  2  0
  8  9  1  0
  9 10  2  0
 10 11  1  0
 11 12  2  0
 12 13  1  0
 12 21  1  0
 13 14  1  0
 13 23  1  0
 14 15  2  0
 14 16  1  0
 16 17  2  0
 17 18  1  0
 18 19  2  0
 19 20  1  0
 20 16  1  0
 21  9  1  0
 22  2  1  0
M  END
> <CMPD_CHEMBLID>
CHEMBL517822

> <STANDARD_TYPE>
Ki

> <RELATION>
=

> <STANDARD_VALUE>
50

> <STANDARD_UNITS>
nM

> <Molecular_Weight>
369.2887

$$$$

  SciTegic11272012012D

 27 30  0  0  0  0            999 V2000
    0.5229   -3.1659    0.0000 Cl  0  0
   -0.1229   -3.0297    0.0000 C   0  0
   -0.3789   -2.2450    0.0000 C   0  0
    0.1713   -1.6316    0.0000 N   0  0
    0.9918   -1.7178    0.0000 N   0  0
    1.3273   -0.9641    0.0000 C   0  0
    0.7144   -0.4125    0.0000 C   0  0
    0.7144    0.4125    0.0000 C   0  0
    1.4285    0.8267    0.0000 N   0  0
    1.4273    1.6521    0.0000 C   0  0
    2.1403    2.0672    0.0000 C   0  0
    2.1375    2.8922    0.0000 C   0  0
    1.4216    3.3022    0.0000 C   0  0
    0.7086    2.8872    0.0000 C   0  0
    0.7114    2.0622    0.0000 C   0  0
    0.0000    0.8250    0.0000 N   0  0
   -0.7144    0.4125    0.0000 C   0  0
   -0.7144   -0.4125    0.0000 N   0  0
    0.0000   -0.8250    0.0000 C   0  0
   -0.6741   -3.6442    0.0000 C   0  0
   -0.4193   -4.4289    0.0000 C   0  0
   -0.9714   -5.0419    0.0000 C   0  0
   -1.7784   -4.8702    0.0000 C   0  0
   -2.2201   -5.3606    0.0000 I   0  0
   -2.0332   -4.0855    0.0000 C   0  0
   -1.4810   -3.4726    0.0000 C   0  0
    1.9052    0.5525    0.0000 H   0  0
  1  2  1  0
  2  3  1  0
  2 20  1  0
  3  4  1  0
  4  5  1  0
  5  6  2  0
  6  7  1  0
  7  8  2  0
  8  9  1  0
  8 16  1  0
  9 10  1  0
  9 27  1  0
 10 11  2  0
 11 12  1  0
 12 13  2  0
 13 14  1  0
 14 15  2  0
 15 10  1  0
 16 17  2  0
 17 18  1  0
 18 19  2  0
 19  4  1  0
 19  7  1  0
 20 21  2  0
 21 22  1  0
 22 23  2  0
 23 24  1  0
 23 25  1  0
 25 26  2  0
 26 20  1  0
M  END
> <CMPD_CHEMBLID>
CHEMBL2397818

> <STANDARD_TYPE>
Ki

> <RELATION>
=

> <STANDARD_VALUE>
50

> <STANDARD_UNITS>
nM

> <Molecular_Weight>
475.71337

$$$$

  SciTegic11272012012D

 26 29  0  0  0  0            999 V2000
    2.1456    0.2461    0.0000 C   0  0
    2.1445   -0.4139    0.0000 C   0  0
    2.8583   -0.8275    0.0000 C   0  0
    2.8570   -1.6525    0.0000 C   0  0
    2.1419   -2.0639    0.0000 C   0  0
    2.1408   -2.7239    0.0000 F   0  0
    1.4281   -1.6502    0.0000 C   0  0
    1.4293   -0.8252    0.0000 C   0  0
    0.7145   -0.4125    0.0000 C   0  0
    0.7145    0.4125    0.0000 C   0  0
    0.0000    0.8250    0.0000 C   0  0
   -0.7145    0.4125    0.0000 C   0  0
   -1.4290    0.8250    0.0000 C   0  0
   -2.1434    0.4125    0.0000 C   0  0
   -2.8592    0.8237    0.0000 N   0  0
   -3.5735    0.4100    0.0000 C   0  0
   -3.5723   -0.2500    0.0000 O   0  0
   -4.2892    0.8213    0.0000 C   0  0
   -4.8602    0.4903    0.0000 C   0  0
   -3.8779    1.4632    0.0000 C   0  0
   -4.7029    1.4617    0.0000 C   0  0
   -2.1434   -0.4125    0.0000 N   0  0
   -1.4290   -0.8250    0.0000 C   0  0
   -0.7145   -0.4125    0.0000 C   0  0
    0.0000   -0.8250    0.0000 C   0  0
   -2.8601    1.3738    0.0000 H   0  0
  1  2  1  0
  2  3  2  0
  3  4  1  0
  4  5  2  0
  5  6  1  0
  5  7  1  0
  7  8  2  0
  8  2  1  0
  8  9  1  0
  9 10  2  0
 10 11  1  0
 11 12  2  0
 12 13  1  0
 13 14  2  0
 14 15  1  0
 14 22  1  0
 15 16  1  0
 15 26  1  0
 16 17  2  0
 16 18  1  0
 18 19  1  0
 18 20  1  0
 20 21  1  0
 21 18  1  0
 22 23  2  0
 23 24  1  0
 24 12  1  0
 24 25  2  0
 25  9  1  0
M  END
> <CMPD_CHEMBLID>
CHEMBL3685008

> <STANDARD_TYPE>
Ki

> <RELATION>
=

> <STANDARD_VALUE>
50

> <STANDARD_UNITS>
nM

> <Molecular_Weight>
334.38676

$$$$

  SciTegic11272012012D

 26 29  0  0  0  0            999 V2000
    3.5703   -2.0678    0.0000 O   0  0
    2.8570   -1.6525    0.0000 C   0  0
    2.8583   -0.8275    0.0000 C   0  0
    2.1445   -0.4139    0.0000 C   0  0
    1.4293   -0.8252    0.0000 C   0  0
    1.4281   -1.6502    0.0000 C   0  0
    2.1419   -2.0639    0.0000 C   0  0
    0.7145   -0.4125    0.0000 C   0  0
    0.7145    0.4125    0.0000 C   0  0
    0.0000    0.8250    0.0000 C   0  0
   -0.7145    0.4125    0.0000 C   0  0
   -1.4986    0.6674    0.0000 C   0  0
   -1.7548    1.4507    0.0000 C   0  0
   -2.5624    1.6213    0.0000 C   0  0
   -3.1619    1.0648    0.0000 C   0  0
   -3.8777    1.4749    0.0000 C   0  0
   -3.7089    2.2825    0.0000 C   0  0
   -2.8887    2.3714    0.0000 N   0  0
   -1.9836    0.0000    0.0000 C   0  0
   -2.6436    0.0000    0.0000 O   0  0
   -1.4986   -0.6674    0.0000 N   0  0
   -0.7145   -0.4125    0.0000 C   0  0
    0.0000   -0.8250    0.0000 C   0  0
   -1.6685   -1.1905    0.0000 H   0  0
   -2.6124    2.8470    0.0000 H   0  0
    3.5687   -2.6179    0.0000 H   0  0
  1  2  1  0
  1 26  1  0
  2  3  2  0
  3  4  1  0
  4  5  2  0
  5  6  1  0
  5  8  1  0
  6  7  2  0
  7  2  1  0
  8  9  2  0
  9 10  1  0
 10 11  2  0
 11 12  1  0
 12 13  2  0
 12 19  1  0
 13 14  1  0
 14 15  2  0
 15 16  1  0
 16 17  2  0
 17 18  1  0
 18 14  1  0
 18 25  1  0
 19 20  2  0
 19 21  1  0
 21 22  1  0
 21 24  1  0
 22 11  1  0
 22 23  2  0
 23  8  1  0
M  END
> <CMPD_CHEMBLID>
CHEMBL1980329

> <STANDARD_TYPE>
Ki

> <RELATION>
=

> <STANDARD_VALUE>
50.12

> <STANDARD_UNITS>
nM

> <Molecular_Weight>
302.32666

$$$$

  SciTegic11272012012D

 29 32  0  0  0  0            999 V2000
    4.1468   -0.7363    0.0000 C   0  0
    3.5745   -0.4075    0.0000 N   0  0
    2.8602   -0.8213    0.0000 C   0  0
    2.8614   -1.4813    0.0000 O   0  0
    2.1445   -0.4100    0.0000 C   0  0
    1.4302   -0.8237    0.0000 C   0  0
    0.7145   -0.4125    0.0000 C   0  0
    0.7145    0.4125    0.0000 C   0  0
    0.0000    0.8250    0.0000 N   0  0
   -0.7145    0.4125    0.0000 C   0  0
   -1.4285    0.8267    0.0000 N   0  0
   -0.7145   -0.4125    0.0000 C   0  0
   -1.3273   -0.9642    0.0000 C   0  0
   -0.9918   -1.7178    0.0000 C   0  0
   -0.1713   -1.6316    0.0000 S   0  0
    0.0000   -0.8250    0.0000 C   0  0
   -2.1347   -0.7924    0.0000 C   0  0
   -2.4465   -0.0316    0.0000 C   0  0
   -3.2641    0.0788    0.0000 C   0  0
   -3.7684   -0.5742    0.0000 C   0  0
   -4.5907   -0.6360    0.0000 S   0  0
   -4.7859   -1.4376    0.0000 C   0  0
   -5.3964   -1.6882    0.0000 C   0  0
   -4.0838   -1.8710    0.0000 N   0  0
   -3.4552   -1.3373    0.0000 C   0  0
   -2.6376   -1.4477    0.0000 C   0  0
   -1.4277    1.3767    0.0000 H   0  0
   -1.9053    0.5525    0.0000 H   0  0
    3.5736    0.1425    0.0000 H   0  0
  1  2  1  0
  2  3  1  0
  2 29  1  0
  3  4  2  0
  3  5  1  0
  5  6  2  0
  6  7  1  0
  7  8  2  0
  8  9  1  0
  9 10  2  0
 10 11  1  0
 10 12  1  0
 11 27  1  0
 11 28  1  0
 12 13  1  0
 13 14  2  0
 13 17  1  0
 14 15  1  0
 15 16  1  0
 16  7  1  0
 16 12  2  0
 17 18  2  0
 18 19  1  0
 19 20  2  0
 20 21  1  0
 21 22  1  0
 22 23  1  0
 22 24  2  0
 24 25  1  0
 25 20  1  0
 25 26  2  0
 26 17  1  0
M  END
> <CMPD_CHEMBLID>
CHEMBL1968590

> <STANDARD_TYPE>
Ki

> <RELATION>
=

> <STANDARD_VALUE>
50.12

> <STANDARD_UNITS>
nM

> <Molecular_Weight>
380.48654

$$$$

  SciTegic11272012012D

 27 30  0  0  0  0            999 V2000
    1.4227   -3.2999    0.0000 N   0  0
    2.1388   -2.8893    0.0000 C   0  0
    2.7094   -3.2212    0.0000 O   0  0
    2.1419   -2.0639    0.0000 C   0  0
    2.8570   -1.6525    0.0000 C   0  0
    2.8583   -0.8275    0.0000 C   0  0
    2.1445   -0.4139    0.0000 C   0  0
    1.4293   -0.8252    0.0000 C   0  0
    1.4281   -1.6502    0.0000 C   0  0
    0.7144   -0.4125    0.0000 C   0  0
    0.7144    0.4125    0.0000 C   0  0
    0.0000    0.8250    0.0000 N   0  0
   -0.7144    0.4125    0.0000 C   0  0
   -1.4986    0.6674    0.0000 N   0  0
   -1.9836    0.0000    0.0000 C   0  0
   -1.4986   -0.6674    0.0000 C   0  0
   -1.7536   -1.4525    0.0000 C   0  0
   -2.5429   -1.6831    0.0000 C   0  0
   -2.7380   -2.4847    0.0000 C   0  0
   -2.1413   -3.0545    0.0000 C   0  0
   -1.3495   -2.8226    0.0000 C   0  0
   -1.1544   -2.0210    0.0000 C   0  0
   -0.7144   -0.4125    0.0000 C   0  0
    0.0000   -0.8250    0.0000 C   0  0
   -1.6685    1.1905    0.0000 H   0  0
    1.4208   -3.8499    0.0000 H   0  0
    0.9474   -3.0233    0.0000 H   0  0
  1  2  1  0
  1 26  1  0
  1 27  1  0
  2  3  2  0
  2  4  1  0
  4  5  2  0
  5  6  1  0
  6  7  2  0
  7  8  1  0
  8  9  2  0
  8 10  1  0
  9  4  1  0
 10 11  2  0
 11 12  1  0
 12 13  2  0
 13 14  1  0
 14 15  1  0
 14 25  1  0
 15 16  2  0
 16 17  1  0
 16 23  1  0
 17 18  2  0
 18 19  1  0
 19 20  2  0
 20 21  1  0
 21 22  2  0
 22 17  1  0
 23 13  1  0
 23 24  2  0
 24 10  1  0
M  END
> <CMPD_CHEMBLID>
CHEMBL1982957

> <STANDARD_TYPE>
Ki

> <RELATION>
=

> <STANDARD_VALUE>
50.12

> <STANDARD_UNITS>
nM

> <Molecular_Weight>
313.3526

$$$$

  SciTegic11272012012D

 33 37  0  0  0  0            999 V2000
   -2.1727   -3.9505    0.0000 N   0  0
   -1.5745   -3.3817    0.0000 C   0  0
   -0.7828   -3.6135    0.0000 C   0  0
   -0.1861   -3.0438    0.0000 C   0  0
   -0.3810   -2.2449    0.0000 C   0  0
   -1.1730   -2.0103    0.0000 C   0  0
   -1.7696   -2.5800    0.0000 C   0  0
    0.1713   -1.6316    0.0000 C   0  0
    0.9918   -1.7178    0.0000 C   0  0
    1.3273   -0.9641    0.0000 S   0  0
    0.7144   -0.4125    0.0000 C   0  0
    0.7144    0.4125    0.0000 C   0  0
    1.4285    0.8267    0.0000 C   0  0
    1.4273    1.6521    0.0000 C   0  0
    2.1413    2.0663    0.0000 C   0  0
    2.8846    1.7248    0.0000 N   0  0
    3.4362    2.3377    0.0000 C   0  0
    4.2612    2.3377    0.0000 C   0  0
    4.6737    3.0522    0.0000 C   0  0
    4.2612    3.7666    0.0000 C   0  0
    3.4362    3.7666    0.0000 C   0  0
    3.0237    3.0521    0.0000 C   0  0
    2.2172    2.8808    0.0000 N   0  0
    0.0000    0.8250    0.0000 C   0  0
   -0.7144    0.4125    0.0000 N   0  0
   -0.7144   -0.4125    0.0000 C   0  0
   -1.4302   -0.8238    0.0000 N   0  0
    0.0000   -0.8250    0.0000 C   0  0
   -1.9061   -0.5481    0.0000 H   0  0
   -1.4312   -1.3738    0.0000 H   0  0
    1.8063    3.2464    0.0000 H   0  0
   -2.7003   -3.7952    0.0000 H   0  0
   -2.0436   -4.4851    0.0000 H   0  0
  1  2  1  0
  1 32  1  0
  1 33  1  0
  2  3  2  0
  3  4  1  0
  4  5  2  0
  5  6  1  0
  5  8  1  0
  6  7  2  0
  7  2  1  0
  8  9  2  0
  9 10  1  0
 10 11  1  0
 11 12  2  0
 12 13  1  0
 12 24  1  0
 13 14  2  0
 14 15  1  0
 15 16  2  0
 16 17  1  0
 17 18  2  0
 18 19  1  0
 19 20  2  0
 20 21  1  0
 21 22  2  0
 22 17  1  0
 22 23  1  0
 23 15  1  0
 23 31  1  0
 24 25  2  0
 25 26  1  0
 26 27  1  0
 26 28  2  0
 27 29  1  0
 27 30  1  0
 28  8  1  0
 28 11  1  0
M  END
> <CMPD_CHEMBLID>
CHEMBL1988300

> <STANDARD_TYPE>
Ki

> <RELATION>
=

> <STANDARD_VALUE>
50.12

> <STANDARD_UNITS>
nM

> <Molecular_Weight>
383.46888

$$$$

  SciTegic11272012012D

 20 23  0  0  0  0            999 V2000
    0.9918   -1.7178    0.0000 C   0  0
    1.3273   -0.9642    0.0000 C   0  0
    0.7145   -0.4125    0.0000 C   0  0
    0.7145    0.4125    0.0000 C   0  0
    0.0000    0.8250    0.0000 C   0  0
   -0.7145    0.4125    0.0000 C   0  0
   -0.7145   -0.4125    0.0000 N   0  0
    0.0000   -0.8250    0.0000 C   0  0
    0.1713   -1.6316    0.0000 N   0  0
    0.0000    1.6505    0.0000 C   0  0
    0.7138    2.0641    0.0000 C   0  0
    0.7125    2.8891    0.0000 C   0  0
   -0.0026    3.3005    0.0000 C   0  0
   -0.1752    4.1069    0.0000 C   0  0
   -0.9958    4.1918    0.0000 N   0  0
   -1.3302    3.4375    0.0000 N   0  0
   -0.7164    2.8869    0.0000 C   0  0
   -0.7151    2.0619    0.0000 C   0  0
   -1.8680    3.3223    0.0000 H   0  0
   -0.1967   -2.0403    0.0000 H   0  0
  1  2  2  0
  2  3  1  0
  3  4  2  0
  4  5  1  0
  5  6  2  0
  5 10  1  0
  6  7  1  0
  7  8  2  0
  8  3  1  0
  8  9  1  0
  9  1  1  0
  9 20  1  0
 10 11  2  0
 11 12  1  0
 12 13  2  0
 13 14  1  0
 14 15  2  0
 15 16  1  0
 16 17  1  0
 16 19  1  0
 17 13  1  0
 17 18  2  0
 18 10  1  0
M  END
> <CMPD_CHEMBLID>
CHEMBL1976134

> <STANDARD_TYPE>
Ki

> <RELATION>
=

> <STANDARD_VALUE>
50.12

> <STANDARD_UNITS>
nM

> <Molecular_Weight>
234.256

$$$$

  SciTegic11272012012D

 36 40  0  0  0  0            999 V2000
    1.2861   -0.7425    0.0000 C   0  0
    0.7144   -0.4125    0.0000 N   0  0
    0.7144    0.4125    0.0000 C   0  0
    0.0000    0.8250    0.0000 C   0  0
   -0.7144    0.4125    0.0000 N   0  0
   -1.4302    0.8237    0.0000 C   0  0
   -2.1444    0.4100    0.0000 C   0  0
   -2.8604    0.8200    0.0000 C   0  0
   -3.5734    0.4050    0.0000 C   0  0
   -3.5706   -0.4200    0.0000 C   0  0
   -2.8546   -0.8300    0.0000 C   0  0
   -2.1416   -0.4150    0.0000 C   0  0
   -4.2832   -0.8367    0.0000 C   0  0
   -4.8564   -0.5096    0.0000 O   0  0
   -4.2791   -1.6621    0.0000 N   0  0
   -4.9917   -2.0788    0.0000 C   0  0
   -4.9889   -2.9038    0.0000 C   0  0
   -5.7019   -3.3187    0.0000 C   0  0
   -6.4177   -2.9087    0.0000 C   0  0
   -6.9882   -3.2407    0.0000 C   0  0
   -6.4207   -2.0837    0.0000 C   0  0
   -5.7076   -1.6687    0.0000 C   0  0
   -7.1369   -1.6735    0.0000 N   0  0
   -7.8795   -2.0165    0.0000 C   0  0
   -8.4327   -1.4045    0.0000 C   0  0
   -8.0216   -0.6892    0.0000 C   0  0
   -7.2143   -0.8592    0.0000 N   0  0
   -9.2534   -1.4923    0.0000 C   0  0
   -9.6417   -2.2171    0.0000 C   0  0
  -10.4662   -2.2430    0.0000 C   0  0
  -10.9009   -1.5418    0.0000 C   0  0
  -10.5110   -0.8147    0.0000 N   0  0
   -9.6864   -0.7889    0.0000 C   0  0
   -0.7144   -0.4125    0.0000 C   0  0
    0.0000   -0.8250    0.0000 C   0  0
   -3.8014   -1.9346    0.0000 H   0  0
  1  2  1  0
  2  3  1  0
  3  4  1  0
  4  5  1  0
  5  6  1  0
  5 34  1  0
  6  7  1  0
  7  8  2  0
  8  9  1  0
  9 10  2  0
 10 11  1  0
 10 13  1  0
 11 12  2  0
 12  7  1  0
 13 14  2  0
 13 15  1  0
 15 16  1  0
 15 36  1  0
 16 17  2  0
 17 18  1  0
 18 19  2  0
 19 20  1  0
 19 21  1  0
 21 22  2  0
 21 23  1  0
 22 16  1  0
 23 24  1  0
 24 25  2  0
 25 26  1  0
 25 28  1  0
 26 27  2  0
 27 23  1  0
 28 29  2  0
 29 30  1  0
 30 31  2  0
 31 32  1  0
 32 33  2  0
 33 28  1  0
 34 35  1  0
 35  2  1  0
M  END
> <CMPD_CHEMBLID>
CHEMBL3597611

> <STANDARD_TYPE>
IC50

> <RELATION>
=

> <STANDARD_VALUE>
50.6

> <STANDARD_UNITS>
nM

> <Molecular_Weight>
466.5774

$$$$

  SciTegic11272012012D

 27 31  0  0  0  0            999 V2000
    0.9918   -1.7178    0.0000 C   0  0
    1.3273   -0.9641    0.0000 O   0  0
    0.7144   -0.4125    0.0000 C   0  0
    0.7144    0.4125    0.0000 C   0  0
    0.0000    0.8250    0.0000 C   0  0
    0.0000    1.6500    0.0000 N   0  0
   -0.7145    2.0625    0.0000 C   0  0
   -1.4290    1.6500    0.0000 N   0  0
   -1.4290    0.8250    0.0000 C   0  0
   -2.1447    0.4137    0.0000 N   0  0
   -2.8590    0.8275    0.0000 C   0  0
   -3.5749    0.4174    0.0000 C   0  0
   -4.2879    0.8324    0.0000 C   0  0
   -4.2851    1.6574    0.0000 C   0  0
   -3.5692    2.0675    0.0000 C   0  0
   -2.8561    1.6525    0.0000 C   0  0
   -3.5663    2.8929    0.0000 C   0  0
   -4.2787    3.3090    0.0000 C   0  0
   -4.2745    4.1340    0.0000 C   0  0
   -3.5580    4.5429    0.0000 C   0  0
   -2.8456    4.1268    0.0000 C   0  0
   -2.8498    3.3018    0.0000 C   0  0
   -0.7144    0.4125    0.0000 C   0  0
   -0.7144   -0.4125    0.0000 C   0  0
    0.0000   -0.8250    0.0000 C   0  0
    0.1713   -1.6316    0.0000 O   0  0
   -2.1456   -0.1363    0.0000 H   0  0
  1  2  1  0
  2  3  1  0
  3  4  2  0
  4  5  1  0
  5  6  2  0
  6  7  1  0
  7  8  2  0
  8  9  1  0
  9 10  1  0
  9 23  2  0
 10 11  1  0
 10 27  1  0
 11 12  2  0
 12 13  1  0
 13 14  2  0
 14 15  1  0
 15 16  2  0
 15 17  1  0
 16 11  1  0
 17 18  2  0
 18 19  1  0
 19 20  2  0
 20 21  1  0
 21 22  2  0
 22 17  1  0
 23  5  1  0
 23 24  1  0
 24 25  2  0
 25  3  1  0
 25 26  1  0
 26  1  1  0
M  END
> <CMPD_CHEMBLID>
CHEMBL2419760

> <STANDARD_TYPE>
IC50

> <RELATION>
=

> <STANDARD_VALUE>
51

> <STANDARD_UNITS>
nM

> <Molecular_Weight>
341.3627

$$$$

  SciTegic11272012012D

 38 42  0  0  0  0            999 V2000
    1.2861   -0.7425    0.0000 C   0  0
    0.7145   -0.4125    0.0000 C   0  0
    0.7145    0.4125    0.0000 C   0  0
    0.0000    0.8250    0.0000 C   0  0
   -0.7145    0.4125    0.0000 C   0  0
   -1.4302    0.8237    0.0000 N   0  0
   -1.4324    1.6492    0.0000 C   0  0
   -0.8616    1.9806    0.0000 O   0  0
   -2.1481    2.0605    0.0000 N   0  0
   -2.1503    2.8859    0.0000 C   0  0
   -2.8651    3.2980    0.0000 C   0  0
   -2.8656    4.1230    0.0000 C   0  0
   -2.1514    4.5360    0.0000 C   0  0
   -1.4367    4.1240    0.0000 C   0  0
   -1.4362    3.2990    0.0000 C   0  0
   -0.7222    4.5371    0.0000 N   0  0
   -0.6455    5.3515    0.0000 C   0  0
    0.1616    5.5223    0.0000 C   0  0
    0.5734    4.8075    0.0000 C   0  0
    0.0208    4.1949    0.0000 C   0  0
   -0.7145   -0.4125    0.0000 C   0  0
    0.0000   -0.8250    0.0000 C   0  0
   -0.0017   -1.6505    0.0000 N   0  0
   -0.7171   -2.0622    0.0000 C   0  0
   -0.7201   -2.8872    0.0000 N   0  0
   -1.4359   -3.2972    0.0000 C   0  0
   -2.1490   -2.8822    0.0000 C   0  0
   -2.1461   -2.0572    0.0000 C   0  0
   -1.4302   -1.6472    0.0000 N   0  0
   -2.8595   -1.6421    0.0000 C   0  0
   -3.5761   -2.0510    0.0000 C   0  0
   -4.2885   -1.6348    0.0000 C   0  0
   -4.2844   -0.8099    0.0000 C   0  0
   -3.5678   -0.4010    0.0000 N   0  0
   -2.8555   -0.8170    0.0000 C   0  0
    0.4742   -1.9263    0.0000 H   0  0
   -2.6238    1.7843    0.0000 H   0  0
   -1.9059    0.5476    0.0000 H   0  0
  1  2  1  0
  2  3  2  0
  3  4  1  0
  4  5  2  0
  5  6  1  0
  5 21  1  0
  6  7  1  0
  6 38  1  0
  7  8  2  0
  7  9  1  0
  9 10  1  0
  9 37  1  0
 10 11  2  0
 11 12  1  0
 12 13  2  0
 13 14  1  0
 14 15  2  0
 14 16  1  0
 15 10  1  0
 16 17  1  0
 17 18  1  0
 18 19  1  0
 19 20  1  0
 20 16  1  0
 21 22  2  0
 22  2  1  0
 22 23  1  0
 23 24  1  0
 23 36  1  0
 24 25  2  0
 25 26  1  0
 26 27  2  0
 27 28  1  0
 28 29  2  0
 28 30  1  0
 29 24  1  0
 30 31  2  0
 31 32  1  0
 32 33  2  0
 33 34  1  0
 34 35  2  0
 35 30  1  0
M  END
> <CMPD_CHEMBLID>
CHEMBL184742

> <STANDARD_TYPE>
IC50

> <RELATION>
=

> <STANDARD_VALUE>
52

> <STANDARD_UNITS>
nM

> <Molecular_Weight>
465.54958

$$$$

  SciTegic11272012012D

 30 33  0  0  0  0            999 V2000
    4.8571   -2.9719    0.0000 C   0  0
    4.2860   -3.3026    0.0000 O   0  0
    3.5703   -2.8914    0.0000 C   0  0
    2.8558   -3.3038    0.0000 C   0  0
    2.1414   -2.8913    0.0000 C   0  0
    2.1413   -2.0663    0.0000 C   0  0
    2.8559   -1.6538    0.0000 C   0  0
    3.5703   -2.0664    0.0000 C   0  0
    1.4273   -1.6521    0.0000 C   0  0
    0.8551   -1.9812    0.0000 O   0  0
    1.4285   -0.8267    0.0000 N   0  0
    0.7144   -0.4125    0.0000 C   0  0
    0.7144    0.4125    0.0000 C   0  0
    0.0000    0.8250    0.0000 C   0  0
    0.0000    1.6500    0.0000 C   0  0
   -0.7145    2.0625    0.0000 C   0  0
   -1.4290    1.6500    0.0000 C   0  0
   -1.4290    0.8250    0.0000 C   0  0
   -0.7144    0.4125    0.0000 C   0  0
   -0.7144   -0.4125    0.0000 C   0  0
    0.0000   -0.8250    0.0000 N   0  0
   -2.1438    2.0627    0.0000 C   0  0
   -2.8576    1.6491    0.0000 C   0  0
   -3.5728    2.0605    0.0000 C   0  0
   -4.1438    1.7295    0.0000 F   0  0
   -3.5741    2.8855    0.0000 C   0  0
   -2.8603    3.2991    0.0000 C   0  0
   -2.1452    2.8877    0.0000 C   0  0
   -1.5741    3.2187    0.0000 C   0  0
    1.9053   -0.5525    0.0000 H   0  0
  1  2  1  0
  2  3  1  0
  3  4  2  0
  4  5  1  0
  5  6  2  0
  6  7  1  0
  6  9  1  0
  7  8  2  0
  8  3  1  0
  9 10  2  0
  9 11  1  0
 11 12  1  0
 11 30  1  0
 12 13  2  0
 13 14  1  0
 14 15  2  0
 15 16  1  0
 16 17  2  0
 17 18  1  0
 17 22  1  0
 18 19  2  0
 19 14  1  0
 19 20  1  0
 20 21  2  0
 21 12  1  0
 22 23  2  0
 23 24  1  0
 24 25  1  0
 24 26  2  0
 26 27  1  0
 27 28  2  0
 28 22  1  0
 28 29  1  0
M  END
> <CMPD_CHEMBLID>
CHEMBL3685034

> <STANDARD_TYPE>
Ki

> <RELATION>
=

> <STANDARD_VALUE>
52

> <STANDARD_UNITS>
nM

> <Molecular_Weight>
386.41826

$$$$

  SciTegic11272012012D

 24 26  0  0  0  0            999 V2000
   -0.1742   -2.8725    0.0000 C   0  0
   -0.3790   -2.2450    0.0000 C   0  0
   -1.0247   -2.1088    0.0000 C   0  0
    0.1713   -1.6316    0.0000 N   0  0
    0.9918   -1.7179    0.0000 N   0  0
    1.3273   -0.9642    0.0000 C   0  0
    2.1348   -0.7925    0.0000 C   0  0
    2.7291   -1.3607    0.0000 C   0  0
    3.5209   -1.1288    0.0000 C   0  0
    4.1190   -1.6977    0.0000 O   0  0
    3.7159   -0.3272    0.0000 C   0  0
    3.1193    0.2426    0.0000 C   0  0
    3.2754    0.8839    0.0000 F   0  0
    2.3275    0.0107    0.0000 C   0  0
    0.7145   -0.4125    0.0000 C   0  0
    0.7145    0.4125    0.0000 C   0  0
    1.4285    0.8267    0.0000 N   0  0
    0.0000    0.8250    0.0000 N   0  0
   -0.7145    0.4125    0.0000 C   0  0
   -0.7145   -0.4125    0.0000 N   0  0
    0.0000   -0.8250    0.0000 C   0  0
    1.4277    1.3767    0.0000 H   0  0
    1.9053    0.5525    0.0000 H   0  0
    4.6467   -1.5423    0.0000 H   0  0
  1  2  1  0
  2  3  1  0
  2  4  1  0
  4  5  1  0
  5  6  2  0
  6  7  1  0
  6 15  1  0
  7  8  2  0
  8  9  1  0
  9 10  1  0
  9 11  2  0
 10 24  1  0
 11 12  1  0
 12 13  1  0
 12 14  2  0
 14  7  1  0
 15 16  2  0
 16 17  1  0
 16 18  1  0
 17 22  1  0
 17 23  1  0
 18 19  2  0
 19 20  1  0
 20 21  2  0
 21  4  1  0
 21 15  1  0
M  END
> <CMPD_CHEMBLID>
CHEMBL1242198

> <STANDARD_TYPE>
IC50

> <RELATION>
=

> <STANDARD_VALUE>
52

> <STANDARD_UNITS>
nM

> <Molecular_Weight>
287.29226

$$$$

  SciTegic11272012012D

 33 37  0  0  0  0            999 V2000
    1.4071   -6.4376    0.0000 C   0  0
    1.4104   -5.7776    0.0000 N   0  0
    2.1270   -5.3688    0.0000 C   0  0
    2.1311   -4.5438    0.0000 C   0  0
    1.4187   -4.1276    0.0000 N   0  0
    0.7022   -4.5365    0.0000 C   0  0
    0.6981   -5.3615    0.0000 C   0  0
    1.4216   -3.3022    0.0000 C   0  0
    2.1375   -2.8922    0.0000 C   0  0
    2.1403   -2.0672    0.0000 C   0  0
    1.4273   -1.6521    0.0000 C   0  0
    1.4285   -0.8267    0.0000 N   0  0
    0.7144   -0.4125    0.0000 C   0  0
    0.7144    0.4125    0.0000 N   0  0
    0.0000    0.8250    0.0000 C   0  0
   -0.7144    0.4125    0.0000 C   0  0
   -1.4289    0.8250    0.0000 C   0  0
   -2.1434    0.4125    0.0000 C   0  0
   -2.8583    0.8252    0.0000 C   0  0
   -3.4298    1.1552    0.0000 N   0  0
   -2.1434   -0.4125    0.0000 C   0  0
   -2.7150   -0.7425    0.0000 O   0  0
   -1.4289   -0.8250    0.0000 N   0  0
   -1.4289   -1.6504    0.0000 C   0  0
   -2.0956   -2.1244    0.0000 C   0  0
   -1.8394   -2.9086    0.0000 C   0  0
   -1.0144   -2.9073    0.0000 C   0  0
   -0.7608   -2.1223    0.0000 C   0  0
   -0.7144   -0.4125    0.0000 C   0  0
    0.0000   -0.8250    0.0000 N   0  0
    0.7114   -2.0622    0.0000 C   0  0
    0.7086   -2.8872    0.0000 C   0  0
    1.9053   -0.5525    0.0000 H   0  0
  1  2  1  0
  2  3  1  0
  3  4  1  0
  4  5  1  0
  5  6  1  0
  5  8  1  0
  6  7  1  0
  7  2  1  0
  8  9  2  0
  9 10  1  0
 10 11  2  0
 11 12  1  0
 11 31  1  0
 12 13  1  0
 12 33  1  0
 13 14  2  0
 14 15  1  0
 15 16  2  0
 16 17  1  0
 17 18  2  0
 18 19  1  0
 18 21  1  0
 19 20  3  0
 21 22  2  0
 21 23  1  0
 23 24  1  0
 23 29  1  0
 24 25  1  0
 25 26  1  0
 26 27  1  0
 27 28  1  0
 28 24  1  0
 29 16  1  0
 29 30  2  0
 30 13  1  0
 31 32  2  0
 32  8  1  0
M  END
> <CMPD_CHEMBLID>
CHEMBL3115681

> <STANDARD_TYPE>
IC50

> <RELATION>
=

> <STANDARD_VALUE>
53.32

> <STANDARD_UNITS>
nM

> <Molecular_Weight>
429.51748

$$$$

  SciTegic11272012012D

 40 44  0  0  0  0            999 V2000
   -7.2817    0.5485    0.0000 C   0  0
   -7.0800   -0.0799    0.0000 N   0  0
   -7.6343   -0.6910    0.0000 C   0  0
   -7.3822   -1.4765    0.0000 C   0  0
   -6.5759   -1.6510    0.0000 N   0  0
   -6.3221   -2.4365    0.0000 C   0  0
   -5.5150   -2.6100    0.0000 C   0  0
   -4.9628   -1.9969    0.0000 C   0  0
   -4.1559   -2.1686    0.0000 C   0  0
   -3.9011   -2.9533    0.0000 C   0  0
   -3.0941   -3.1267    0.0000 N   0  0
   -2.8402   -3.9121    0.0000 C   0  0
   -3.2828   -4.4018    0.0000 O   0  0
   -2.0332   -4.0855    0.0000 C   0  0
   -1.7784   -4.8702    0.0000 C   0  0
   -0.9714   -5.0419    0.0000 C   0  0
   -0.4193   -4.4289    0.0000 C   0  0
    0.2263   -4.5662    0.0000 C   0  0
   -0.6741   -3.6442    0.0000 C   0  0
   -0.1229   -3.0297    0.0000 C   0  0
   -0.3789   -2.2450    0.0000 C   0  0
    0.1713   -1.6316    0.0000 C   0  0
    0.9918   -1.7178    0.0000 C   0  0
    1.3273   -0.9641    0.0000 N   0  0
    0.7144   -0.4125    0.0000 C   0  0
    0.7144    0.4125    0.0000 C   0  0
    0.0000    0.8250    0.0000 C   0  0
   -0.7144    0.4125    0.0000 C   0  0
   -0.7144   -0.4125    0.0000 N   0  0
    0.0000   -0.8250    0.0000 N   0  0
   -1.4810   -3.4726    0.0000 C   0  0
   -4.4533   -3.5663    0.0000 C   0  0
   -5.2602   -3.3946    0.0000 C   0  0
   -5.8126   -4.0079    0.0000 C   0  0
   -5.6092   -4.6358    0.0000 F   0  0
   -6.4582   -3.8704    0.0000 F   0  0
   -6.2546   -4.4981    0.0000 F   0  0
   -6.0216   -1.0399    0.0000 C   0  0
   -6.2737   -0.2544    0.0000 C   0  0
   -2.7252   -2.7186    0.0000 H   0  0
  1  2  1  0
  2  3  1  0
  3  4  1  0
  4  5  1  0
  5  6  1  0
  5 38  1  0
  6  7  1  0
  7  8  2  0
  8  9  1  0
  9 10  2  0
 10 11  1  0
 10 32  1  0
 11 12  1  0
 11 40  1  0
 12 13  2  0
 12 14  1  0
 14 15  2  0
 15 16  1  0
 16 17  2  0
 17 18  1  0
 17 19  1  0
 19 20  1  0
 19 31  2  0
 20 21  2  0
 21 22  1  0
 22 23  2  0
 23 24  1  0
 24 25  2  0
 25 26  1  0
 26 27  2  0
 27 28  1  0
 28 29  2  0
 29 30  1  0
 30 22  1  0
 30 25  1  0
 31 14  1  0
 32 33  2  0
 33  7  1  0
 33 34  1  0
 34 35  1  0
 34 36  1  0
 34 37  1  0
 38 39  1  0
 39  2  1  0
M  END
> <CMPD_CHEMBLID>
CHEMBL1173201

> <STANDARD_TYPE>
IC50

> <RELATION>
=

> <STANDARD_VALUE>
54

> <STANDARD_UNITS>
nM

> <Molecular_Weight>
534.57537

$$$$

  SciTegic11272012012D

 25 28  0  0  0  0            999 V2000
    1.4302   -0.8238    0.0000 N   0  0
    0.7145   -0.4125    0.0000 C   0  0
    0.7145    0.4125    0.0000 N   0  0
    0.0000    0.8250    0.0000 C   0  0
   -0.7145    0.4125    0.0000 N   0  0
   -0.7145   -0.4125    0.0000 C   0  0
    0.0000   -0.8250    0.0000 C   0  0
   -0.1713   -1.6316    0.0000 C   0  0
   -0.9918   -1.7178    0.0000 N   0  0
   -1.3273   -0.9642    0.0000 N   0  0
   -2.1348   -0.7925    0.0000 C   0  0
   -2.8320   -1.1903    0.0000 C   0  0
   -3.2226   -0.4637    0.0000 C   0  0
   -2.4959   -0.0730    0.0000 C   0  0
    0.3811   -2.2450    0.0000 C   0  0
    1.1959   -2.1345    0.0000 C   0  0
    1.7002   -2.7874    0.0000 C   0  0
    1.3870   -3.5506    0.0000 C   0  0
    1.7905   -4.0729    0.0000 F   0  0
    0.5694   -3.6610    0.0000 C   0  0
    0.2544   -4.4240    0.0000 O   0  0
    0.0651   -3.0081    0.0000 C   0  0
   -0.2907   -4.4968    0.0000 H   0  0
    1.9062   -0.5481    0.0000 H   0  0
    1.4312   -1.3738    0.0000 H   0  0
  1  2  1  0
  1 24  1  0
  1 25  1  0
  2  3  2  0
  3  4  1  0
  4  5  2  0
  5  6  1  0
  6  7  2  0
  7  2  1  0
  7  8  1  0
  8  9  2  0
  8 15  1  0
  9 10  1  0
 10  6  1  0
 10 11  1  0
 11 12  1  0
 12 13  1  0
 13 14  1  0
 14 11  1  0
 15 16  2  0
 16 17  1  0
 17 18  2  0
 18 19  1  0
 18 20  1  0
 20 21  1  0
 20 22  2  0
 21 23  1  0
 22 15  1  0
M  END
> <CMPD_CHEMBLID>
CHEMBL1242566

> <STANDARD_TYPE>
IC50

> <RELATION>
=

> <STANDARD_VALUE>
55

> <STANDARD_UNITS>
nM

> <Molecular_Weight>
299.30296

$$$$

  SciTegic11272012012D

 29 32  0  0  0  0            999 V2000
    3.5747   -2.7187    0.0000 F   0  0
    3.5747   -2.0587    0.0000 C   0  0
    4.2891   -1.6462    0.0000 C   0  0
    4.2891   -0.8213    0.0000 C   0  0
    3.5746   -0.4088    0.0000 C   0  0
    2.8601   -0.8213    0.0000 C   0  0
    2.1444   -0.4100    0.0000 C   0  0
    1.4302   -0.8237    0.0000 N   0  0
    0.7144   -0.4125    0.0000 C   0  0
    0.7144    0.4125    0.0000 N   0  0
    0.0000    0.8250    0.0000 C   0  0
   -0.7144    0.4125    0.0000 N   0  0
   -0.7144   -0.4125    0.0000 C   0  0
    0.0000   -0.8250    0.0000 C   0  0
   -0.1713   -1.6316    0.0000 C   0  0
   -0.9918   -1.7178    0.0000 N   0  0
   -1.3273   -0.9641    0.0000 N   0  0
   -2.1337   -0.7943    0.0000 C   0  0
   -2.6852   -1.4084    0.0000 C   0  0
   -2.4803   -2.0358    0.0000 Cl  0  0
   -3.4930   -1.2383    0.0000 C   0  0
   -4.0452   -1.8513    0.0000 C   0  0
   -4.8521   -1.6797    0.0000 C   0  0
   -5.1069   -0.8950    0.0000 C   0  0
   -5.7525   -0.7577    0.0000 Br  0  0
   -4.5548   -0.2820    0.0000 C   0  0
   -3.7478   -0.4536    0.0000 C   0  0
    2.8602   -1.6463    0.0000 C   0  0
    1.4311   -1.3737    0.0000 H   0  0
  1  2  1  0
  2  3  2  0
  3  4  1  0
  4  5  2  0
  5  6  1  0
  6  7  1  0
  6 28  2  0
  7  8  1  0
  8  9  1  0
  8 29  1  0
  9 10  2  0
 10 11  1  0
 11 12  2  0
 12 13  1  0
 13 14  2  0
 14  9  1  0
 14 15  1  0
 15 16  2  0
 16 17  1  0
 17 13  1  0
 17 18  1  0
 18 19  1  0
 19 20  1  0
 19 21  1  0
 21 22  2  0
 22 23  1  0
 23 24  2  0
 24 25  1  0
 24 26  1  0
 26 27  2  0
 27 21  1  0
 28  2  1  0
M  END
> <CMPD_CHEMBLID>
CHEMBL2397796

> <STANDARD_TYPE>
Ki

> <RELATION>
=

> <STANDARD_VALUE>
55

> <STANDARD_UNITS>
nM

> <Molecular_Weight>
460.72994

$$$$

  SciTegic11272012012D

 45 48  0  0  0  0            999 V2000
    1.2861   -0.7425    0.0000 C   0  0
    0.7144   -0.4125    0.0000 N   0  0
    0.7144    0.4125    0.0000 C   0  0
    0.0000    0.8250    0.0000 C   0  0
   -0.7144    0.4125    0.0000 N   0  0
   -1.4302    0.8237    0.0000 C   0  0
   -2.1444    0.4100    0.0000 C   0  0
   -2.1416   -0.4150    0.0000 C   0  0
   -2.8546   -0.8300    0.0000 C   0  0
   -3.5706   -0.4200    0.0000 C   0  0
   -4.2849   -0.8337    0.0000 N   0  0
   -5.0006   -0.4225    0.0000 C   0  0
   -5.0017    0.2375    0.0000 O   0  0
   -5.7149   -0.8362    0.0000 C   0  0
   -6.4307   -0.4261    0.0000 C   0  0
   -7.1438   -0.8411    0.0000 C   0  0
   -7.1409   -1.6661    0.0000 C   0  0
   -7.7114   -1.9980    0.0000 C   0  0
   -6.4251   -2.0761    0.0000 C   0  0
   -5.7120   -1.6612    0.0000 C   0  0
   -6.4223   -2.9016    0.0000 C   0  0
   -6.4194   -3.7270    0.0000 C   0  0
   -6.4166   -4.5524    0.0000 C   0  0
   -7.0824   -5.0276    0.0000 C   0  0
   -6.8247   -5.8113    0.0000 N   0  0
   -5.9997   -5.8085    0.0000 C   0  0
   -5.5145   -6.4745    0.0000 C   0  0
   -4.8582   -6.4044    0.0000 O   0  0
   -5.8487   -7.2293    0.0000 N   0  0
   -5.3626   -7.8964    0.0000 C   0  0
   -5.6969   -8.6512    0.0000 C   0  0
   -5.2108   -9.3183    0.0000 O   0  0
   -5.7475   -5.0230    0.0000 N   0  0
   -5.1218   -4.8132    0.0000 C   0  0
   -3.5734    0.4050    0.0000 C   0  0
   -2.8604    0.8200    0.0000 C   0  0
   -2.8633    1.6454    0.0000 C   0  0
   -3.4358    1.9738    0.0000 F   0  0
   -2.2927    1.9772    0.0000 F   0  0
   -2.8653    2.3054    0.0000 F   0  0
   -0.7144   -0.4125    0.0000 C   0  0
    0.0000   -0.8250    0.0000 C   0  0
   -5.4335   -9.8212    0.0000 H   0  0
   -6.3956   -7.2877    0.0000 H   0  0
   -4.2839   -1.3837    0.0000 H   0  0
  1  2  1  0
  2  3  1  0
  3  4  1  0
  4  5  1  0
  5  6  1  0
  5 41  1  0
  6  7  1  0
  7  8  2  0
  8  9  1  0
  9 10  2  0
 10 11  1  0
 10 35  1  0
 11 12  1  0
 11 45  1  0
 12 13  2  0
 12 14  1  0
 14 15  2  0
 15 16  1  0
 16 17  2  0
 17 18  1  0
 17 19  1  0
 19 20  2  0
 19 21  1  0
 20 14  1  0
 21 22  3  0
 22 23  1  0
 23 24  2  0
 24 25  1  0
 25 26  2  0
 26 27  1  0
 26 33  1  0
 27 28  2  0
 27 29  1  0
 29 30  1  0
 29 44  1  0
 30 31  1  0
 31 32  1  0
 32 43  1  0
 33 23  1  0
 33 34  1  0
 35 36  2  0
 36  7  1  0
 36 37  1  0
 37 38  1  0
 37 39  1  0
 37 40  1  0
 41 42  1  0
 42  2  1  0
M  END
> <CMPD_CHEMBLID>
CHEMBL1784636

> <STANDARD_TYPE>
IC50

> <RELATION>
=

> <STANDARD_VALUE>
55

> <STANDARD_UNITS>
nM

> <Molecular_Weight>
582.61663

$$$$

  SciTegic11272012012D

 42 46  0  0  0  0            999 V2000
   -7.6973    1.3688    0.0000 C   0  0
   -8.1414    0.8806    0.0000 C   0  0
   -8.7863    1.0213    0.0000 C   0  0
   -7.8909    0.0941    0.0000 N   0  0
   -8.4451   -0.5169    0.0000 C   0  0
   -8.1931   -1.3025    0.0000 C   0  0
   -7.3868   -1.4771    0.0000 N   0  0
   -7.1330   -2.2625    0.0000 C   0  0
   -6.3260   -2.4360    0.0000 C   0  0
   -5.7738   -1.8230    0.0000 C   0  0
   -4.9669   -1.9947    0.0000 C   0  0
   -4.7120   -2.7794    0.0000 C   0  0
   -3.9050   -2.9528    0.0000 N   0  0
   -3.6512   -3.7383    0.0000 C   0  0
   -4.0938   -4.2279    0.0000 O   0  0
   -2.8442   -3.9117    0.0000 C   0  0
   -2.5894   -4.6964    0.0000 C   0  0
   -1.7825   -4.8681    0.0000 C   0  0
   -1.2303   -4.2551    0.0000 C   0  0
   -0.5848   -4.3925    0.0000 C   0  0
   -1.4851   -3.4705    0.0000 C   0  0
   -2.2921   -3.2988    0.0000 C   0  0
   -0.9327   -2.8571    0.0000 C   0  0
   -0.3802   -2.2438    0.0000 C   0  0
    0.1713   -1.6316    0.0000 C   0  0
    0.9918   -1.7178    0.0000 C   0  0
    1.3273   -0.9641    0.0000 N   0  0
    0.7144   -0.4125    0.0000 C   0  0
    0.7144    0.4125    0.0000 C   0  0
    0.0000    0.8250    0.0000 C   0  0
   -0.7144    0.4125    0.0000 C   0  0
   -0.7144   -0.4125    0.0000 C   0  0
    0.0000   -0.8250    0.0000 N   0  0
   -5.2643   -3.3924    0.0000 C   0  0
   -6.0712   -3.2207    0.0000 C   0  0
   -6.6237   -3.8340    0.0000 C   0  0
   -6.4203   -4.4618    0.0000 F   0  0
   -7.2692   -3.6964    0.0000 F   0  0
   -7.0656   -4.3241    0.0000 F   0  0
   -6.8325   -0.8660    0.0000 C   0  0
   -7.0846   -0.0804    0.0000 C   0  0
   -3.5362   -2.5448    0.0000 H   0  0
  1  2  1  0
  2  3  1  0
  2  4  1  0
  4  5  1  0
  5  6  1  0
  6  7  1  0
  7  8  1  0
  7 40  1  0
  8  9  1  0
  9 10  2  0
 10 11  1  0
 11 12  2  0
 12 13  1  0
 12 34  1  0
 13 14  1  0
 13 42  1  0
 14 15  2  0
 14 16  1  0
 16 17  2  0
 17 18  1  0
 18 19  2  0
 19 20  1  0
 19 21  1  0
 21 22  2  0
 21 23  1  0
 22 16  1  0
 23 24  3  0
 24 25  1  0
 25 26  2  0
 26 27  1  0
 27 28  2  0
 28 29  1  0
 29 30  2  0
 30 31  1  0
 31 32  2  0
 32 33  1  0
 33 25  1  0
 33 28  1  0
 34 35  2  0
 35  9  1  0
 35 36  1  0
 36 37  1  0
 36 38  1  0
 36 39  1  0
 40 41  1  0
 41  4  1  0
M  END
> <CMPD_CHEMBLID>
CHEMBL1171043

> <STANDARD_TYPE>
IC50

> <RELATION>
=

> <STANDARD_VALUE>
56

> <STANDARD_UNITS>
nM

> <Molecular_Weight>
559.62459

$$$$

  SciTegic11272012012D

 27 30  0  0  0  0            999 V2000
   -2.0134   -4.5941    0.0000 C   0  0
   -2.1705   -3.9530    0.0000 O   0  0
   -1.5746   -3.3817    0.0000 C   0  0
   -0.7828   -3.6136    0.0000 C   0  0
   -0.1861   -3.0438    0.0000 C   0  0
   -0.3810   -2.2450    0.0000 C   0  0
   -1.1730   -2.0103    0.0000 C   0  0
   -1.7697   -2.5801    0.0000 C   0  0
   -2.5614   -2.3465    0.0000 O   0  0
    0.1713   -1.6316    0.0000 C   0  0
    0.9918   -1.7179    0.0000 N   0  0
    1.3273   -0.9642    0.0000 N   0  0
    2.1348   -0.7925    0.0000 C   0  0
    2.7754   -1.2969    0.0000 C   0  0
    3.4553   -0.8296    0.0000 C   0  0
    3.2211   -0.0386    0.0000 C   0  0
    2.3964   -0.0169    0.0000 C   0  0
    0.7145   -0.4125    0.0000 C   0  0
    0.7145    0.4125    0.0000 N   0  0
    0.0000    0.8250    0.0000 C   0  0
   -0.7145    0.4125    0.0000 N   0  0
   -0.7145   -0.4125    0.0000 C   0  0
   -1.4302   -0.8238    0.0000 N   0  0
    0.0000   -0.8250    0.0000 C   0  0
   -1.9062   -0.5481    0.0000 H   0  0
   -1.4312   -1.3738    0.0000 H   0  0
   -2.6907   -1.8119    0.0000 H   0  0
  1  2  1  0
  2  3  1  0
  3  4  2  0
  4  5  1  0
  5  6  2  0
  6  7  1  0
  6 10  1  0
  7  8  2  0
  8  3  1  0
  8  9  1  0
  9 27  1  0
 10 11  2  0
 11 12  1  0
 12 13  1  0
 12 18  1  0
 13 14  1  0
 14 15  1  0
 15 16  1  0
 16 17  1  0
 17 13  1  0
 18 19  2  0
 19 20  1  0
 20 21  2  0
 21 22  1  0
 22 23  1  0
 22 24  2  0
 23 25  1  0
 23 26  1  0
 24 10  1  0
 24 18  1  0
M  END
> <CMPD_CHEMBLID>
CHEMBL1242201

> <STANDARD_TYPE>
IC50

> <RELATION>
=

> <STANDARD_VALUE>
56

> <STANDARD_UNITS>
nM

> <Molecular_Weight>
325.36506

$$$$

  SciTegic11272012012D

 36 39  0  0  0  0            999 V2000
   -0.1286   -4.1989    0.0000 C   0  0
   -0.6979   -4.5328    0.0000 N   0  0
   -0.6933   -5.1927    0.0000 C   0  0
   -1.4158   -4.1254    0.0000 C   0  0
   -2.1281   -4.5417    0.0000 C   0  0
   -2.8448   -4.1331    0.0000 C   0  0
   -2.8492   -3.3081    0.0000 C   0  0
   -2.1370   -2.8917    0.0000 C   0  0
   -2.1397   -2.0663    0.0000 N   0  0
   -2.8557   -1.6555    0.0000 C   0  0
   -3.4262   -1.9872    0.0000 O   0  0
   -2.8584   -0.8301    0.0000 N   0  0
   -3.5744   -0.4193    0.0000 C   0  0
   -4.2886   -0.8322    0.0000 C   0  0
   -5.0033   -0.4202    0.0000 C   0  0
   -5.0039    0.4048    0.0000 C   0  0
   -5.5757    0.7344    0.0000 C   0  0
   -4.2897    0.8177    0.0000 C   0  0
   -4.2886    1.6432    0.0000 N   0  0
   -3.5734    2.0554    0.0000 C   0  0
   -3.5710    2.8804    0.0000 N   0  0
   -2.8554    3.2909    0.0000 C   0  0
   -2.1421    2.8763    0.0000 C   0  0
   -2.1444    2.0514    0.0000 C   0  0
   -2.8600    1.6409    0.0000 N   0  0
   -1.4307    1.6367    0.0000 C   0  0
   -0.7144    2.0460    0.0000 C   0  0
   -0.0018    1.6304    0.0000 C   0  0
   -0.0054    0.8054    0.0000 C   0  0
   -0.7217    0.3960    0.0000 N   0  0
   -1.4343    0.8117    0.0000 C   0  0
   -3.5749    0.4057    0.0000 C   0  0
   -1.4203   -3.3004    0.0000 C   0  0
   -4.7646    1.9187    0.0000 H   0  0
   -2.3830   -0.5537    0.0000 H   0  0
   -1.6642   -1.7899    0.0000 H   0  0
  1  2  1  0
  2  3  1  0
  2  4  1  0
  4  5  2  0
  5  6  1  0
  6  7  2  0
  7  8  1  0
  8  9  1  0
  8 33  2  0
  9 10  1  0
  9 36  1  0
 10 11  2  0
 10 12  1  0
 12 13  1  0
 12 35  1  0
 13 14  2  0
 14 15  1  0
 15 16  2  0
 16 17  1  0
 16 18  1  0
 18 19  1  0
 18 32  2  0
 19 20  1  0
 19 34  1  0
 20 21  2  0
 21 22  1  0
 22 23  2  0
 23 24  1  0
 24 25  2  0
 24 26  1  0
 25 20  1  0
 26 27  2  0
 27 28  1  0
 28 29  2  0
 29 30  1  0
 30 31  2  0
 31 26  1  0
 32 13  1  0
 33  4  1  0
M  END
> <CMPD_CHEMBLID>
CHEMBL434335

> <STANDARD_TYPE>
IC50

> <RELATION>
=

> <STANDARD_VALUE>
56

> <STANDARD_UNITS>
nM

> <Molecular_Weight>
439.5123

$$$$

  SciTegic11272012012D

 29 33  0  0  0  0            999 V2000
    0.9269   -0.2115    0.0000 C   0  0
    0.7433    0.5928    0.0000 C   0  0
    0.0000    0.9507    0.0000 O   0  0
   -0.7433    0.5927    0.0000 C   0  0
   -1.3488    1.1541    0.0000 C   0  0
   -2.1371    0.9108    0.0000 C   0  0
   -2.7418    1.4720    0.0000 N   0  0
   -3.5302    1.2288    0.0000 C   0  0
   -3.7137    0.4245    0.0000 N   0  0
   -3.1090   -0.1366    0.0000 C   0  0
   -3.2943   -0.9410    0.0000 N   0  0
   -4.0834   -1.1832    0.0000 C   0  0
   -4.2698   -1.9869    0.0000 C   0  0
   -5.0590   -2.2273    0.0000 C   0  0
   -5.6618   -1.6641    0.0000 C   0  0
   -5.4755   -0.8604    0.0000 C   0  0
   -4.6863   -0.6200    0.0000 C   0  0
   -6.0786   -0.2969    0.0000 C   0  0
   -6.8682   -0.5361    0.0000 C   0  0
   -7.4701    0.0281    0.0000 C   0  0
   -7.2825    0.8315    0.0000 C   0  0
   -6.4930    1.0707    0.0000 C   0  0
   -5.8911    0.5065    0.0000 C   0  0
   -2.3207    0.1065    0.0000 C   0  0
   -1.7159   -0.4546    0.0000 C   0  0
   -0.9269   -0.2116    0.0000 C   0  0
   -0.4125   -0.8566    0.0000 O   0  0
    0.4125   -0.8566    0.0000 C   0  0
   -2.8918   -1.3158    0.0000 H   0  0
  1  2  1  0
  2  3  1  0
  3  4  1  0
  4  5  2  0
  5  6  1  0
  6  7  2  0
  7  8  1  0
  8  9  2  0
  9 10  1  0
 10 11  1  0
 10 24  2  0
 11 12  1  0
 11 29  1  0
 12 13  2  0
 13 14  1  0
 14 15  2  0
 15 16  1  0
 16 17  2  0
 16 18  1  0
 17 12  1  0
 18 19  2  0
 19 20  1  0
 20 21  2  0
 21 22  1  0
 22 23  2  0
 23 18  1  0
 24  6  1  0
 24 25  1  0
 25 26  2  0
 26  4  1  0
 26 27  1  0
 27 28  1  0
 28  1  1  0
M  END
> <CMPD_CHEMBLID>
CHEMBL3040910

> <STANDARD_TYPE>
IC50

> <RELATION>
=

> <STANDARD_VALUE>
56

> <STANDARD_UNITS>
nM

> <Molecular_Weight>
369.41586

$$$$

  SciTegic11272012012D

 27 30  0  0  0  0            999 V2000
    2.2541   -3.0993    0.0000 C   0  0
    2.6435   -2.5664    0.0000 C   0  0
    3.2996   -2.6374    0.0000 C   0  0
    2.3108   -1.8125    0.0000 N   0  0
    1.5040   -1.6398    0.0000 N   0  0
    1.4293   -0.8252    0.0000 C   0  0
    0.7145   -0.4125    0.0000 C   0  0
    0.7145    0.4125    0.0000 C   0  0
    0.0000    0.8250    0.0000 C   0  0
   -0.7145    0.4125    0.0000 C   0  0
   -1.4290    0.8250    0.0000 C   0  0
   -2.1435    0.4125    0.0000 C   0  0
   -2.8592    0.8238    0.0000 O   0  0
   -2.1435   -0.4125    0.0000 C   0  0
   -1.4290   -0.8250    0.0000 C   0  0
   -0.7145   -0.4125    0.0000 C   0  0
    0.0000   -0.8250    0.0000 C   0  0
    2.1728   -0.4850    0.0000 C   0  0
    2.4289    0.2993    0.0000 C   0  0
    1.8786    0.9146    0.0000 N   0  0
    3.2361    0.4697    0.0000 N   0  0
    3.7873   -0.1443    0.0000 C   0  0
    3.5312   -0.9285    0.0000 N   0  0
    2.7239   -1.0989    0.0000 C   0  0
    2.0501    1.4372    0.0000 H   0  0
    1.3403    0.8020    0.0000 H   0  0
   -3.3351    0.5481    0.0000 H   0  0
  1  2  1  0
  2  3  1  0
  2  4  1  0
  4  5  1  0
  5  6  2  0
  6  7  1  0
  6 18  1  0
  7  8  2  0
  8  9  1  0
  9 10  2  0
 10 11  1  0
 11 12  2  0
 12 13  1  0
 12 14  1  0
 13 27  1  0
 14 15  2  0
 15 16  1  0
 16 10  1  0
 16 17  2  0
 17  7  1  0
 18 19  2  0
 19 20  1  0
 19 21  1  0
 20 25  1  0
 20 26  1  0
 21 22  2  0
 22 23  1  0
 23 24  2  0
 24  4  1  0
 24 18  1  0
M  END
> <CMPD_CHEMBLID>
CHEMBL1242662

> <STANDARD_TYPE>
IC50

> <RELATION>
=

> <STANDARD_VALUE>
57

> <STANDARD_UNITS>
nM

> <Molecular_Weight>
319.36048

$$$$

  SciTegic11272012012D

 29 32  0  0  0  0            999 V2000
    2.1455    0.2461    0.0000 C   0  0
    2.1445   -0.4139    0.0000 C   0  0
    2.8583   -0.8275    0.0000 C   0  0
    2.8570   -1.6525    0.0000 C   0  0
    2.1419   -2.0639    0.0000 C   0  0
    2.1408   -2.7239    0.0000 F   0  0
    1.4281   -1.6502    0.0000 C   0  0
    1.4293   -0.8252    0.0000 C   0  0
    0.7144   -0.4125    0.0000 C   0  0
    0.7144    0.4125    0.0000 C   0  0
    0.0000    0.8250    0.0000 C   0  0
   -0.7144    0.4125    0.0000 C   0  0
   -1.4290    0.8250    0.0000 C   0  0
   -2.1434    0.4125    0.0000 C   0  0
   -2.8591    0.8237    0.0000 N   0  0
   -3.5734    0.4100    0.0000 C   0  0
   -3.5722   -0.2500    0.0000 O   0  0
   -4.2891    0.8213    0.0000 C   0  0
   -5.0036    0.4088    0.0000 C   0  0
   -5.7181    0.8213    0.0000 C   0  0
   -5.7181    1.6463    0.0000 C   0  0
   -5.0037    2.0588    0.0000 C   0  0
   -5.0037    2.7188    0.0000 F   0  0
   -4.2892    1.6463    0.0000 C   0  0
   -2.1434   -0.4125    0.0000 N   0  0
   -1.4290   -0.8250    0.0000 C   0  0
   -0.7144   -0.4125    0.0000 C   0  0
    0.0000   -0.8250    0.0000 C   0  0
   -2.8601    1.3737    0.0000 H   0  0
  1  2  1  0
  2  3  2  0
  3  4  1  0
  4  5  2  0
  5  6  1  0
  5  7  1  0
  7  8  2  0
  8  2  1  0
  8  9  1  0
  9 10  2  0
 10 11  1  0
 11 12  2  0
 12 13  1  0
 13 14  2  0
 14 15  1  0
 14 25  1  0
 15 16  1  0
 15 29  1  0
 16 17  2  0
 16 18  1  0
 18 19  2  0
 19 20  1  0
 20 21  2  0
 21 22  1  0
 22 23  1  0
 22 24  2  0
 24 18  1  0
 25 26  2  0
 26 27  1  0
 27 12  1  0
 27 28  2  0
 28  9  1  0
M  END
> <CMPD_CHEMBLID>
CHEMBL3639839

> <STANDARD_TYPE>
Ki

> <RELATION>
=

> <STANDARD_VALUE>
58

> <STANDARD_UNITS>
nM

> <Molecular_Weight>
374.38275

$$$$

  SciTegic11272012012D

 22 24  0  0  0  0            999 V2000
    1.2861   -0.7425    0.0000 C   0  0
    0.7145   -0.4125    0.0000 C   0  0
    0.7145    0.4125    0.0000 C   0  0
    0.0000    0.8250    0.0000 C   0  0
   -0.7145    0.4125    0.0000 C   0  0
   -0.7145   -0.4125    0.0000 C   0  0
   -1.4285   -0.8267    0.0000 C   0  0
   -1.4273   -1.6522    0.0000 C   0  0
   -2.0931   -2.1274    0.0000 C   0  0
   -1.8354   -2.9112    0.0000 N   0  0
   -1.0104   -2.9083    0.0000 C   0  0
   -0.5224   -3.5723    0.0000 N   0  0
    0.2981   -3.4820    0.0000 C   0  0
    0.5634   -2.8776    0.0000 O   0  0
    0.7870   -4.1471    0.0000 C   0  0
    1.6049   -4.1345    0.0000 C   0  0
    1.8626   -4.9182    0.0000 C   0  0
    1.1969   -5.4055    0.0000 C   0  0
    0.5277   -4.9229    0.0000 S   0  0
   -0.7582   -2.1228    0.0000 S   0  0
    0.0000   -0.8250    0.0000 C   0  0
   -0.7435   -4.0759    0.0000 H   0  0
  1  2  1  0
  2  3  2  0
  3  4  1  0
  4  5  2  0
  5  6  1  0
  6  7  1  0
  6 21  2  0
  7  8  1  0
  8  9  2  0
  9 10  1  0
 10 11  2  0
 11 12  1  0
 11 20  1  0
 12 13  1  0
 12 22  1  0
 13 14  2  0
 13 15  1  0
 15 16  2  0
 16 17  1  0
 17 18  2  0
 18 19  1  0
 19 15  1  0
 20  8  1  0
 21  2  1  0
M  END
> <CMPD_CHEMBLID>
CHEMBL517047

> <STANDARD_TYPE>
Ki

> <RELATION>
=

> <STANDARD_VALUE>
59

> <STANDARD_UNITS>
nM

> <Molecular_Weight>
314.42516

$$$$

  SciTegic11272012012D

 40 46  0  0  0  0            999 V2000
    1.4273   -1.6521    0.0000 C   0  0
    1.4285   -0.8267    0.0000 N   0  0
    0.7145   -0.4125    0.0000 C   0  0
    0.7145    0.4125    0.0000 C   0  0
    0.0000    0.8250    0.0000 C   0  0
   -0.7145    0.4125    0.0000 C   0  0
   -1.4986    0.6674    0.0000 N   0  0
   -1.9836    0.0000    0.0000 N   0  0
   -1.4986   -0.6674    0.0000 C   0  0
   -1.7536   -1.4525    0.0000 C   0  0
   -1.2128   -2.0668    0.0000 N   0  0
   -1.6438   -2.7698    0.0000 C   0  0
   -1.4096   -3.5609    0.0000 C   0  0
   -1.9776   -4.1592    0.0000 C   0  0
   -2.7798   -3.9665    0.0000 C   0  0
   -3.0140   -3.1755    0.0000 C   0  0
   -2.4460   -2.5771    0.0000 C   0  0
   -2.5108   -1.7551    0.0000 N   0  0
   -1.7432   -4.9507    0.0000 N   0  0
   -0.9413   -5.1447    0.0000 C   0  0
   -0.7084   -5.9361    0.0000 C   0  0
   -1.2773   -6.5336    0.0000 C   0  0
   -2.0792   -6.3396    0.0000 C   0  0
   -2.3121   -5.5482    0.0000 C   0  0
   -1.0442   -7.3254    0.0000 N   0  0
   -0.2427   -7.5207    0.0000 C   0  0
   -0.0109   -8.3125    0.0000 C   0  0
   -0.5808   -8.9091    0.0000 C   0  0
   -1.3824   -8.7138    0.0000 C   0  0
   -1.6141   -7.9220    0.0000 C   0  0
   -0.7145   -0.4125    0.0000 C   0  0
    0.0000   -0.8250    0.0000 C   0  0
    2.1413   -2.0664    0.0000 C   0  0
    2.2172   -2.8808    0.0000 O   0  0
    3.0241   -3.0523    0.0000 C   0  0
    3.4366   -2.3379    0.0000 C   0  0
    2.8846   -1.7247    0.0000 C   0  0
   -2.9779   -1.4648    0.0000 H   0  0
   -1.6685    1.1905    0.0000 H   0  0
    1.9053   -0.5525    0.0000 H   0  0
  1  2  1  0
  1 33  1  0
  2  3  1  0
  2 40  1  0
  3  4  2  0
  4  5  1  0
  5  6  2  0
  6  7  1  0
  7  8  1  0
  7 39  1  0
  8  9  2  0
  9 10  1  0
  9 31  1  0
 10 11  2  0
 11 12  1  0
 12 13  2  0
 13 14  1  0
 14 15  2  0
 14 19  1  0
 15 16  1  0
 16 17  2  0
 17 12  1  0
 17 18  1  0
 18 10  1  0
 18 38  1  0
 19 20  1  0
 20 21  1  0
 21 22  1  0
 22 23  1  0
 22 25  1  0
 23 24  1  0
 24 19  1  0
 25 26  1  0
 26 27  1  0
 27 28  1  0
 28 29  1  0
 29 30  1  0
 30 25  1  0
 31  6  1  0
 31 32  2  0
 32  3  1  0
 33 34  1  0
 34 35  1  0
 35 36  2  0
 36 37  1  0
 37 33  2  0
M  END
> <CMPD_CHEMBLID>
CHEMBL211154

> <STANDARD_TYPE>
IC50

> <RELATION>
=

> <STANDARD_VALUE>
60

> <STANDARD_UNITS>
nM

> <Molecular_Weight>
495.61862

$$$$

  SciTegic11272012012D

 27 30  0  0  0  0            999 V2000
   -2.2201   -5.3606    0.0000 C   0  0
   -1.7784   -4.8702    0.0000 C   0  0
   -0.9714   -5.0419    0.0000 C   0  0
   -0.4193   -4.4289    0.0000 C   0  0
   -0.6741   -3.6442    0.0000 C   0  0
   -1.4810   -3.4726    0.0000 C   0  0
   -2.0332   -4.0855    0.0000 C   0  0
   -0.1229   -3.0297    0.0000 C   0  0
    0.5229   -3.1659    0.0000 Cl  0  0
   -0.3789   -2.2450    0.0000 C   0  0
    0.1713   -1.6316    0.0000 N   0  0
    0.9918   -1.7178    0.0000 N   0  0
    1.3273   -0.9641    0.0000 C   0  0
    0.7144   -0.4125    0.0000 C   0  0
    0.7144    0.4125    0.0000 C   0  0
    1.4285    0.8267    0.0000 N   0  0
    1.4273    1.6521    0.0000 C   0  0
    2.1403    2.0672    0.0000 C   0  0
    2.1375    2.8922    0.0000 C   0  0
    1.4216    3.3022    0.0000 C   0  0
    0.7086    2.8872    0.0000 C   0  0
    0.7114    2.0622    0.0000 C   0  0
    0.0000    0.8250    0.0000 N   0  0
   -0.7144    0.4125    0.0000 C   0  0
   -0.7144   -0.4125    0.0000 N   0  0
    0.0000   -0.8250    0.0000 C   0  0
    1.9052    0.5525    0.0000 H   0  0
  1  2  1  0
  2  3  2  0
  3  4  1  0
  4  5  2  0
  5  6  1  0
  5  8  1  0
  6  7  2  0
  7  2  1  0
  8  9  1  0
  8 10  1  0
 10 11  1  0
 11 12  1  0
 12 13  2  0
 13 14  1  0
 14 15  2  0
 15 16  1  0
 15 23  1  0
 16 17  1  0
 16 27  1  0
 17 18  2  0
 18 19  1  0
 19 20  2  0
 20 21  1  0
 21 22  2  0
 22 17  1  0
 23 24  2  0
 24 25  1  0
 25 26  2  0
 26 11  1  0
 26 14  1  0
M  END
> <CMPD_CHEMBLID>
CHEMBL2397817

> <STANDARD_TYPE>
Ki

> <RELATION>
=

> <STANDARD_VALUE>
60

> <STANDARD_UNITS>
nM

> <Molecular_Weight>
363.84342

$$$$

  SciTegic11272012012D

 31 34  0  0  0  0            999 V2000
    1.2861   -0.7425    0.0000 C   0  0
    0.7144   -0.4125    0.0000 N   0  0
    0.7144    0.4125    0.0000 C   0  0
    1.2861    0.7425    0.0000 O   0  0
    0.0000    0.8250    0.0000 C   0  0
   -0.7144    0.4125    0.0000 C   0  0
   -0.7144   -0.4125    0.0000 C   0  0
   -1.4290   -0.8250    0.0000 C   0  0
   -1.4290   -1.6500    0.0000 N   0  0
   -0.7144   -2.0625    0.0000 C   0  0
   -0.7127   -2.8879    0.0000 N   0  0
    0.0027   -3.2997    0.0000 C   0  0
    0.0044   -4.1251    0.0000 C   0  0
    0.7188   -4.5377    0.0000 C   0  0
    0.7189   -5.3627    0.0000 C   0  0
    0.0045   -5.7752    0.0000 C   0  0
   -0.7100   -5.3627    0.0000 C   0  0
   -1.4258   -5.7740    0.0000 N   0  0
   -0.7100   -4.5377    0.0000 C   0  0
    0.0000   -1.6500    0.0000 N   0  0
    0.0000   -0.8250    0.0000 C   0  0
    0.0000    1.6504    0.0000 C   0  0
   -0.7151    2.0618    0.0000 C   0  0
   -0.7164    2.8868    0.0000 C   0  0
   -0.0026    3.3005    0.0000 C   0  0
    0.7125    2.8891    0.0000 C   0  0
    0.7138    2.0641    0.0000 C   0  0
    1.2859    1.7350    0.0000 Cl  0  0
   -1.9017   -5.4983    0.0000 H   0  0
   -1.4267   -6.3240    0.0000 H   0  0
   -1.1886   -3.1638    0.0000 H   0  0
  1  2  1  0
  2  3  1  0
  3  4  2  0
  3  5  1  0
  5  6  2  0
  5 22  1  0
  6  7  1  0
  7  8  2  0
  8  9  1  0
  9 10  2  0
 10 11  1  0
 10 20  1  0
 11 12  1  0
 11 31  1  0
 12 13  1  0
 13 14  2  0
 14 15  1  0
 15 16  2  0
 16 17  1  0
 17 18  1  0
 17 19  2  0
 18 29  1  0
 18 30  1  0
 19 13  1  0
 20 21  2  0
 21  2  1  0
 21  7  1  0
 22 23  2  0
 23 24  1  0
 24 25  2  0
 25 26  1  0
 26 27  2  0
 27 22  1  0
 27 28  1  0
M  END
> <CMPD_CHEMBLID>
CHEMBL1223344

> <STANDARD_TYPE>
Ki

> <RELATION>
=

> <STANDARD_VALUE>
60

> <STANDARD_UNITS>
nM

> <Molecular_Weight>
391.85352

$$$$

  SciTegic11272012012D

 41 47  0  0  0  0            999 V2000
   -0.5785   -2.9632    0.0000 C   0  0
   -0.0086   -3.2960    0.0000 O   0  0
    0.7086   -2.8872    0.0000 C   0  0
    1.4216   -3.3022    0.0000 C   0  0
    2.1375   -2.8922    0.0000 C   0  0
    2.1403   -2.0672    0.0000 C   0  0
    1.4273   -1.6521    0.0000 C   0  0
    1.4285   -0.8267    0.0000 O   0  0
    0.7144   -0.4125    0.0000 C   0  0
    0.7144    0.4125    0.0000 C   0  0
    0.0000    0.8250    0.0000 C   0  0
   -0.7144    0.4125    0.0000 C   0  0
   -1.4986    0.6674    0.0000 N   0  0
   -1.9836    0.0000    0.0000 N   0  0
   -1.4986   -0.6674    0.0000 C   0  0
   -1.7536   -1.4525    0.0000 C   0  0
   -1.2128   -2.0668    0.0000 N   0  0
   -1.6438   -2.7698    0.0000 C   0  0
   -1.4096   -3.5609    0.0000 C   0  0
   -1.9776   -4.1592    0.0000 C   0  0
   -2.7798   -3.9665    0.0000 C   0  0
   -3.0140   -3.1755    0.0000 C   0  0
   -2.4460   -2.5771    0.0000 C   0  0
   -2.5108   -1.7551    0.0000 N   0  0
   -1.7432   -4.9507    0.0000 N   0  0
   -0.9413   -5.1447    0.0000 C   0  0
   -0.7084   -5.9361    0.0000 C   0  0
   -1.2773   -6.5336    0.0000 C   0  0
   -2.0792   -6.3396    0.0000 C   0  0
   -2.3121   -5.5482    0.0000 C   0  0
   -1.0442   -7.3254    0.0000 N   0  0
   -0.2427   -7.5207    0.0000 C   0  0
   -0.0109   -8.3125    0.0000 C   0  0
   -0.5808   -8.9091    0.0000 C   0  0
   -1.3824   -8.7138    0.0000 C   0  0
   -1.6141   -7.9220    0.0000 C   0  0
   -0.7144   -0.4125    0.0000 C   0  0
    0.0000   -0.8250    0.0000 C   0  0
    0.7114   -2.0622    0.0000 C   0  0
   -2.9779   -1.4648    0.0000 H   0  0
   -1.6685    1.1905    0.0000 H   0  0
  1  2  1  0
  2  3  1  0
  3  4  2  0
  4  5  1  0
  5  6  2  0
  6  7  1  0
  7  8  1  0
  7 39  2  0
  8  9  1  0
  9 10  2  0
 10 11  1  0
 11 12  2  0
 12 13  1  0
 13 14  1  0
 13 41  1  0
 14 15  2  0
 15 16  1  0
 15 37  1  0
 16 17  2  0
 17 18  1  0
 18 19  2  0
 19 20  1  0
 20 21  2  0
 20 25  1  0
 21 22  1  0
 22 23  2  0
 23 18  1  0
 23 24  1  0
 24 16  1  0
 24 40  1  0
 25 26  1  0
 26 27  1  0
 27 28  1  0
 28 29  1  0
 28 31  1  0
 29 30  1  0
 30 25  1  0
 31 32  1  0
 32 33  1  0
 33 34  1  0
 34 35  1  0
 35 36  1  0
 36 31  1  0
 37 12  1  0
 37 38  2  0
 38  9  1  0
 39  3  1  0
M  END
> <CMPD_CHEMBLID>
CHEMBL379987

> <STANDARD_TYPE>
IC50

> <RELATION>
=

> <STANDARD_VALUE>
60

> <STANDARD_UNITS>
nM

> <Molecular_Weight>
522.64066

$$$$

  SciTegic11272012012D

 29 32  0  0  0  0            999 V2000
    1.4276   -1.4867    0.0000 C   0  0
    1.4285   -0.8267    0.0000 S   0  0
    0.7144   -0.4125    0.0000 C   0  0
    0.7144    0.4125    0.0000 N   0  0
    0.0000    0.8250    0.0000 C   0  0
    0.0017    1.6504    0.0000 N   0  0
    0.7171    2.0622    0.0000 C   0  0
    0.7201    2.8872    0.0000 C   0  0
    1.4359    3.2972    0.0000 C   0  0
    2.1489    2.8823    0.0000 C   0  0
    2.1461    2.0573    0.0000 C   0  0
    2.7165    1.7253    0.0000 Br  0  0
    1.4302    1.6472    0.0000 C   0  0
   -0.7144    0.4125    0.0000 C   0  0
   -1.4986    0.6674    0.0000 C   0  0
   -1.9836    0.0000    0.0000 N   0  0
   -1.4986   -0.6674    0.0000 N   0  0
   -1.7547   -1.4507    0.0000 C   0  0
   -2.5623   -1.6213    0.0000 C   0  0
   -3.0032   -1.1301    0.0000 Cl  0  0
   -2.8189   -2.4059    0.0000 C   0  0
   -3.6259   -2.5776    0.0000 C   0  0
   -3.8807   -3.3622    0.0000 C   0  0
   -3.3285   -3.9752    0.0000 C   0  0
   -2.5216   -3.8036    0.0000 C   0  0
   -2.2668   -3.0189    0.0000 C   0  0
   -0.7144   -0.4125    0.0000 C   0  0
    0.0000   -0.8250    0.0000 N   0  0
   -0.4742    1.9263    0.0000 H   0  0
  1  2  1  0
  2  3  1  0
  3  4  2  0
  4  5  1  0
  5  6  1  0
  5 14  2  0
  6  7  1  0
  6 29  1  0
  7  8  2  0
  8  9  1  0
  9 10  2  0
 10 11  1  0
 11 12  1  0
 11 13  2  0
 13  7  1  0
 14 15  1  0
 15 16  2  0
 16 17  1  0
 17 18  1  0
 17 27  1  0
 18 19  1  0
 19 20  1  0
 19 21  1  0
 21 22  2  0
 22 23  1  0
 23 24  2  0
 24 25  1  0
 25 26  2  0
 26 21  1  0
 27 14  1  0
 27 28  2  0
 28  3  1  0
M  END
> <CMPD_CHEMBLID>
CHEMBL238561

> <STANDARD_TYPE>
Ki

> <RELATION>
=

> <STANDARD_VALUE>
60

> <STANDARD_UNITS>
nM

> <Molecular_Weight>
474.80448

$$$$

  SciTegic11272012012D

 40 46  0  0  0  0            999 V2000
    1.4273   -1.6521    0.0000 C   0  0
    1.4285   -0.8267    0.0000 O   0  0
    0.7144   -0.4125    0.0000 C   0  0
    0.7144    0.4125    0.0000 C   0  0
    0.0000    0.8250    0.0000 C   0  0
   -0.7144    0.4125    0.0000 C   0  0
   -1.4986    0.6674    0.0000 N   0  0
   -1.9836    0.0000    0.0000 N   0  0
   -1.4986   -0.6674    0.0000 C   0  0
   -1.7536   -1.4525    0.0000 C   0  0
   -1.2128   -2.0668    0.0000 N   0  0
   -1.6438   -2.7698    0.0000 C   0  0
   -1.4096   -3.5609    0.0000 C   0  0
   -1.9776   -4.1592    0.0000 C   0  0
   -2.7798   -3.9665    0.0000 C   0  0
   -3.0140   -3.1755    0.0000 C   0  0
   -2.4460   -2.5771    0.0000 C   0  0
   -2.5107   -1.7551    0.0000 N   0  0
   -1.7432   -4.9507    0.0000 N   0  0
   -0.9413   -5.1447    0.0000 C   0  0
   -0.7084   -5.9361    0.0000 C   0  0
   -1.2773   -6.5336    0.0000 C   0  0
   -2.0792   -6.3396    0.0000 C   0  0
   -2.3121   -5.5482    0.0000 C   0  0
   -1.0442   -7.3254    0.0000 N   0  0
   -0.2427   -7.5207    0.0000 C   0  0
   -0.0109   -8.3125    0.0000 C   0  0
   -0.5808   -8.9091    0.0000 C   0  0
   -1.3824   -8.7138    0.0000 C   0  0
   -1.6141   -7.9220    0.0000 C   0  0
   -0.7144   -0.4125    0.0000 C   0  0
    0.0000   -0.8250    0.0000 C   0  0
    2.1413   -2.0663    0.0000 C   0  0
    2.1414   -2.8913    0.0000 C   0  0
    2.8558   -3.3038    0.0000 C   0  0
    3.5703   -2.8914    0.0000 C   0  0
    3.5703   -2.0664    0.0000 C   0  0
    2.8559   -1.6538    0.0000 C   0  0
   -2.9779   -1.4648    0.0000 H   0  0
   -1.6685    1.1905    0.0000 H   0  0
  1  2  1  0
  1 33  1  0
  2  3  1  0
  3  4  2  0
  4  5  1  0
  5  6  2  0
  6  7  1  0
  7  8  1  0
  7 40  1  0
  8  9  2  0
  9 10  1  0
  9 31  1  0
 10 11  2  0
 11 12  1  0
 12 13  2  0
 13 14  1  0
 14 15  2  0
 14 19  1  0
 15 16  1  0
 16 17  2  0
 17 12  1  0
 17 18  1  0
 18 10  1  0
 18 39  1  0
 19 20  1  0
 20 21  1  0
 21 22  1  0
 22 23  1  0
 22 25  1  0
 23 24  1  0
 24 19  1  0
 25 26  1  0
 26 27  1  0
 27 28  1  0
 28 29  1  0
 29 30  1  0
 30 25  1  0
 31  6  1  0
 31 32  2  0
 32  3  1  0
 33 34  2  0
 34 35  1  0
 35 36  2  0
 36 37  1  0
 37 38  2  0
 38 33  1  0
M  END
> <CMPD_CHEMBLID>
CHEMBL377346

> <STANDARD_TYPE>
IC50

> <RELATION>
=

> <STANDARD_VALUE>
60

> <STANDARD_UNITS>
nM

> <Molecular_Weight>
506.64126

$$$$

  SciTegic11272012012D

 55 60  0  0  0  0            999 V2000
    4.8547   -4.4611    0.0000 C   0  0
    4.2831   -4.1310    0.0000 N   0  0
    3.5687   -4.5435    0.0000 C   0  0
    2.8542   -4.1310    0.0000 C   0  0
    2.8542   -3.3060    0.0000 N   0  0
    2.1402   -2.8918    0.0000 C   0  0
    2.1413   -2.0663    0.0000 C   0  0
    1.4273   -1.6521    0.0000 C   0  0
    0.8551   -1.9812    0.0000 O   0  0
    1.4285   -0.8267    0.0000 N   0  0
    0.7144   -0.4125    0.0000 C   0  0
    0.7144    0.4125    0.0000 C   0  0
    0.0000    0.8250    0.0000 C   0  0
   -0.7144    0.4125    0.0000 C   0  0
   -1.4290    0.8250    0.0000 N   0  0
   -2.1434    0.4125    0.0000 C   0  0
   -2.1434   -0.4125    0.0000 N   0  0
   -1.4290   -0.8250    0.0000 C   0  0
   -1.4306   -1.6504    0.0000 N   0  0
   -2.1461   -2.0622    0.0000 C   0  0
   -2.1490   -2.8872    0.0000 C   0  0
   -2.8649   -3.2972    0.0000 C   0  0
   -3.5779   -2.8823    0.0000 C   0  0
   -4.2951   -3.2910    0.0000 N   0  0
   -5.0079   -2.8749    0.0000 C   0  0
   -5.0044   -2.2149    0.0000 O   0  0
   -5.7250   -3.2836    0.0000 N   0  0
   -6.4379   -2.8674    0.0000 C   0  0
   -6.5080   -2.0524    0.0000 C   0  0
   -7.3138   -1.8753    0.0000 C   0  0
   -7.7312   -2.5869    0.0000 N   0  0
   -7.1834   -3.2038    0.0000 N   0  0
   -7.3559   -4.0110    0.0000 C   0  0
   -6.7907   -4.6081    0.0000 C   0  0
   -7.0266   -5.3987    0.0000 C   0  0
   -7.8292   -5.5897    0.0000 C   0  0
   -8.3959   -4.9901    0.0000 C   0  0
   -9.1993   -5.1797    0.0000 N   0  0
   -8.1601   -4.1996    0.0000 C   0  0
   -7.6437   -1.1202    0.0000 C   0  0
   -7.2525   -0.5887    0.0000 C   0  0
   -8.2997   -1.0469    0.0000 C   0  0
   -7.9083   -0.5156    0.0000 C   0  0
   -3.5751   -2.0573    0.0000 C   0  0
   -2.8592   -1.6472    0.0000 C   0  0
   -0.7144   -0.4125    0.0000 C   0  0
    0.0000   -0.8250    0.0000 C   0  0
    3.5687   -2.8935    0.0000 C   0  0
    4.2832   -3.3060    0.0000 C   0  0
   -9.5766   -4.7794    0.0000 H   0  0
   -9.3575   -5.7064    0.0000 H   0  0
   -5.7279   -3.8336    0.0000 H   0  0
   -4.2979   -3.8410    0.0000 H   0  0
   -0.9548   -1.9263    0.0000 H   0  0
    1.9053   -0.5525    0.0000 H   0  0
  1  2  1  0
  2  3  1  0
  3  4  1  0
  4  5  1  0
  5  6  1  0
  5 48  1  0
  6  7  1  0
  7  8  1  0
  8  9  2  0
  8 10  1  0
 10 11  1  0
 10 55  1  0
 11 12  2  0
 12 13  1  0
 13 14  2  0
 14 15  1  0
 15 16  2  0
 16 17  1  0
 17 18  2  0
 18 19  1  0
 18 46  1  0
 19 20  1  0
 19 54  1  0
 20 21  2  0
 21 22  1  0
 22 23  2  0
 23 24  1  0
 23 44  1  0
 24 25  1  0
 24 53  1  0
 25 26  2  0
 25 27  1  0
 27 28  1  0
 27 52  1  0
 28 29  2  0
 29 30  1  0
 30 31  2  0
 30 40  1  0
 31 32  1  0
 32 28  1  0
 32 33  1  0
 33 34  2  0
 34 35  1  0
 35 36  2  0
 36 37  1  0
 37 38  1  0
 37 39  2  0
 38 50  1  0
 38 51  1  0
 39 33  1  0
 40 41  1  0
 40 42  1  0
 40 43  1  0
 44 45  2  0
 45 20  1  0
 46 14  1  0
 46 47  2  0
 47 11  1  0
 48 49  1  0
 49  2  1  0
M  END
> <CMPD_CHEMBLID>
CHEMBL2403820

> <STANDARD_TYPE>
IC50

> <RELATION>
=

> <STANDARD_VALUE>
61

> <STANDARD_UNITS>
nM

> <Molecular_Weight>
661.79912

$$$$

  SciTegic11272012012D

 37 40  0  0  0  0            999 V2000
    1.2861   -0.7425    0.0000 C   0  0
    0.7144   -0.4125    0.0000 N   0  0
    0.7144    0.4125    0.0000 C   0  0
    0.0000    0.8250    0.0000 C   0  0
   -0.7144    0.4125    0.0000 N   0  0
   -1.4302    0.8237    0.0000 C   0  0
   -2.1444    0.4100    0.0000 C   0  0
   -2.1416   -0.4150    0.0000 C   0  0
   -2.8546   -0.8300    0.0000 C   0  0
   -3.5706   -0.4200    0.0000 C   0  0
   -4.2849   -0.8337    0.0000 N   0  0
   -5.0006   -0.4225    0.0000 C   0  0
   -5.0017    0.2375    0.0000 O   0  0
   -5.7149   -0.8362    0.0000 C   0  0
   -6.4307   -0.4261    0.0000 C   0  0
   -7.1438   -0.8411    0.0000 C   0  0
   -7.1409   -1.6661    0.0000 C   0  0
   -7.7114   -1.9980    0.0000 C   0  0
   -6.4251   -2.0761    0.0000 C   0  0
   -5.7120   -1.6612    0.0000 C   0  0
   -6.4223   -2.9016    0.0000 C   0  0
   -6.4194   -3.7270    0.0000 C   0  0
   -6.4166   -4.5524    0.0000 C   0  0
   -7.1296   -4.9674    0.0000 C   0  0
   -7.1268   -5.7924    0.0000 N   0  0
   -6.4109   -6.2024    0.0000 C   0  0
   -5.6979   -5.7875    0.0000 N   0  0
   -5.7007   -4.9625    0.0000 C   0  0
   -3.5734    0.4050    0.0000 C   0  0
   -2.8604    0.8200    0.0000 C   0  0
   -2.8633    1.6454    0.0000 C   0  0
   -3.4358    1.9738    0.0000 F   0  0
   -2.2927    1.9772    0.0000 F   0  0
   -2.8653    2.3054    0.0000 F   0  0
   -0.7144   -0.4125    0.0000 C   0  0
    0.0000   -0.8250    0.0000 C   0  0
   -4.2839   -1.3837    0.0000 H   0  0
  1  2  1  0
  2  3  1  0
  3  4  1  0
  4  5  1  0
  5  6  1  0
  5 35  1  0
  6  7  1  0
  7  8  2  0
  8  9  1  0
  9 10  2  0
 10 11  1  0
 10 29  1  0
 11 12  1  0
 11 37  1  0
 12 13  2  0
 12 14  1  0
 14 15  2  0
 15 16  1  0
 16 17  2  0
 17 18  1  0
 17 19  1  0
 19 20  2  0
 19 21  1  0
 20 14  1  0
 21 22  3  0
 22 23  1  0
 23 24  2  0
 24 25  1  0
 25 26  2  0
 26 27  1  0
 27 28  2  0
 28 23  1  0
 29 30  2  0
 30  7  1  0
 30 31  1  0
 31 32  1  0
 31 33  1  0
 31 34  1  0
 35 36  1  0
 36  2  1  0
M  END
> <CMPD_CHEMBLID>
CHEMBL1784626

> <STANDARD_TYPE>
IC50

> <RELATION>
=

> <STANDARD_VALUE>
62.7

> <STANDARD_UNITS>
nM

> <Molecular_Weight>
493.52345

$$$$

  SciTegic11272012012D

 26 29  0  0  0  0            999 V2000
    1.4302   -0.8238    0.0000 N   0  0
    0.7145   -0.4125    0.0000 C   0  0
    0.7145    0.4125    0.0000 N   0  0
    0.0000    0.8250    0.0000 C   0  0
   -0.7145    0.4125    0.0000 N   0  0
   -0.7145   -0.4125    0.0000 C   0  0
    0.0000   -0.8250    0.0000 C   0  0
   -0.1713   -1.6316    0.0000 C   0  0
   -0.9918   -1.7178    0.0000 N   0  0
   -1.3273   -0.9642    0.0000 N   0  0
   -2.1348   -0.7925    0.0000 C   0  0
   -2.7754   -1.2969    0.0000 C   0  0
   -3.4553   -0.8297    0.0000 C   0  0
   -3.2211   -0.0386    0.0000 C   0  0
   -2.3964   -0.0169    0.0000 C   0  0
    0.3811   -2.2450    0.0000 C   0  0
    1.1730   -2.0103    0.0000 C   0  0
    1.7697   -2.5800    0.0000 C   0  0
    1.5746   -3.3817    0.0000 C   0  0
    0.7829   -3.6136    0.0000 C   0  0
    0.5894   -4.4160    0.0000 O   0  0
    0.1862   -3.0438    0.0000 C   0  0
   -0.4473   -3.2291    0.0000 F   0  0
    0.9877   -4.7953    0.0000 H   0  0
    1.9062   -0.5481    0.0000 H   0  0
    1.4312   -1.3738    0.0000 H   0  0
  1  2  1  0
  1 25  1  0
  1 26  1  0
  2  3  2  0
  3  4  1  0
  4  5  2  0
  5  6  1  0
  6  7  2  0
  7  2  1  0
  7  8  1  0
  8  9  2  0
  8 16  1  0
  9 10  1  0
 10  6  1  0
 10 11  1  0
 11 12  1  0
 12 13  1  0
 13 14  1  0
 14 15  1  0
 15 11  1  0
 16 17  2  0
 17 18  1  0
 18 19  2  0
 19 20  1  0
 20 21  1  0
 20 22  2  0
 21 24  1  0
 22 16  1  0
 22 23  1  0
M  END
> <CMPD_CHEMBLID>
CHEMBL1242111

> <STANDARD_TYPE>
IC50

> <RELATION>
=

> <STANDARD_VALUE>
63

> <STANDARD_UNITS>
nM

> <Molecular_Weight>
313.32954

$$$$

  SciTegic11272012012D

 28 31  0  0  0  0            999 V2000
    6.2872    0.5074    0.0000 C   0  0
    5.7149    0.8362    0.0000 O   0  0
    5.0006    0.4225    0.0000 C   0  0
    5.0035   -0.4026    0.0000 C   0  0
    4.2904   -0.8175    0.0000 C   0  0
    3.5745   -0.4075    0.0000 C   0  0
    2.8602   -0.8213    0.0000 C   0  0
    2.1445   -0.4100    0.0000 N   0  0
    1.4302   -0.8237    0.0000 N   0  0
    0.7145   -0.4125    0.0000 C   0  0
    0.7145    0.4125    0.0000 N   0  0
    0.0000    0.8250    0.0000 C   0  0
   -0.7145    0.4125    0.0000 N   0  0
   -0.7145   -0.4125    0.0000 C   0  0
   -1.3273   -0.9642    0.0000 C   0  0
   -2.1472   -0.8776    0.0000 C   0  0
   -2.6321   -1.5451    0.0000 C   0  0
   -2.2966   -2.2988    0.0000 C   0  0
   -1.4761   -2.3850    0.0000 C   0  0
   -0.9918   -1.7178    0.0000 C   0  0
   -0.1713   -1.6316    0.0000 N   0  0
    0.0000   -0.8250    0.0000 C   0  0
    3.5717    0.4175    0.0000 C   0  0
    4.2847    0.8325    0.0000 C   0  0
    4.2802    1.6579    0.0000 O   0  0
    3.7070    1.9851    0.0000 C   0  0
    0.1968   -2.0403    0.0000 H   0  0
    1.4312   -1.3738    0.0000 H   0  0
  1  2  1  0
  2  3  1  0
  3  4  2  0
  4  5  1  0
  5  6  2  0
  6  7  1  0
  6 23  1  0
  7  8  2  0
  8  9  1  0
  9 10  1  0
  9 28  1  0
 10 11  2  0
 11 12  1  0
 12 13  2  0
 13 14  1  0
 14 15  1  0
 15 16  2  0
 16 17  1  0
 17 18  2  0
 18 19  1  0
 19 20  2  0
 20 15  1  0
 20 21  1  0
 21 22  1  0
 21 27  1  0
 22 10  1  0
 22 14  2  0
 23 24  2  0
 24  3  1  0
 24 25  1  0
 25 26  1  0
M  END
> <CMPD_CHEMBLID>
CHEMBL1974664

> <STANDARD_TYPE>
Ki

> <RELATION>
=

> <STANDARD_VALUE>
63.1

> <STANDARD_UNITS>
nM

> <Molecular_Weight>
347.37058

$$$$

  SciTegic11272012012D

 39 43  0  0  0  0            999 V2000
   -5.4917   -2.3744    0.0000 C   0  0
   -5.3379   -3.0162    0.0000 C   0  0
   -5.9365   -3.5839    0.0000 C   0  0
   -5.7442   -4.3862    0.0000 C   0  0
   -4.9533   -4.6207    0.0000 C   0  0
   -4.3546   -4.0531    0.0000 C   0  0
   -3.5627   -4.2862    0.0000 N   0  0
   -2.9646   -3.7174    0.0000 C   0  0
   -3.1195   -3.0758    0.0000 O   0  0
   -2.1727   -3.9505    0.0000 N   0  0
   -1.5745   -3.3817    0.0000 C   0  0
   -0.7828   -3.6135    0.0000 C   0  0
   -0.1861   -3.0437    0.0000 C   0  0
   -0.3810   -2.2449    0.0000 C   0  0
   -1.1730   -2.0103    0.0000 C   0  0
   -1.7696   -2.5800    0.0000 C   0  0
    0.1713   -1.6316    0.0000 C   0  0
    0.9918   -1.7178    0.0000 C   0  0
    1.3273   -0.9641    0.0000 S   0  0
    0.7144   -0.4125    0.0000 C   0  0
    0.7144    0.4125    0.0000 C   0  0
    0.0000    0.8250    0.0000 C   0  0
   -0.7144    0.4125    0.0000 N   0  0
   -0.7144   -0.4125    0.0000 C   0  0
   -1.4302   -0.8238    0.0000 N   0  0
    0.0000   -0.8250    0.0000 C   0  0
    1.4293    0.8252    0.0000 C   0  0
    2.1442    1.2379    0.0000 C   0  0
    2.8590    1.6507    0.0000 C   0  0
    3.5735    1.2382    0.0000 C   0  0
    4.2880    1.6507    0.0000 C   0  0
    4.2879    2.4757    0.0000 C   0  0
    3.5735    2.8882    0.0000 N   0  0
    2.8590    2.4757    0.0000 C   0  0
   -4.5469   -3.2508    0.0000 C   0  0
   -1.9061   -0.5481    0.0000 H   0  0
   -1.4311   -1.3738    0.0000 H   0  0
   -2.0436   -4.4851    0.0000 H   0  0
   -3.4336   -4.8208    0.0000 H   0  0
  1  2  1  0
  2  3  2  0
  3  4  1  0
  4  5  2  0
  5  6  1  0
  6  7  1  0
  6 35  2  0
  7  8  1  0
  7 39  1  0
  8  9  2  0
  8 10  1  0
 10 11  1  0
 10 38  1  0
 11 12  2  0
 12 13  1  0
 13 14  2  0
 14 15  1  0
 14 17  1  0
 15 16  2  0
 16 11  1  0
 17 18  2  0
 18 19  1  0
 19 20  1  0
 20 21  2  0
 21 22  1  0
 21 27  1  0
 22 23  2  0
 23 24  1  0
 24 25  1  0
 24 26  2  0
 25 36  1  0
 25 37  1  0
 26 17  1  0
 26 20  1  0
 27 28  3  0
 28 29  1  0
 29 30  2  0
 30 31  1  0
 31 32  2  0
 32 33  1  0
 33 34  2  0
 34 29  1  0
 35  2  1  0
M  END
> <CMPD_CHEMBLID>
CHEMBL1971947

> <STANDARD_TYPE>
Ki

> <RELATION>
=

> <STANDARD_VALUE>
63.1

> <STANDARD_UNITS>
nM

> <Molecular_Weight>
475.56424

$$$$

  SciTegic11272012012D

 37 41  0  0  0  0            999 V2000
    2.1324   -4.5419    0.0000 N   0  0
    1.4198   -4.1254    0.0000 C   0  0
    1.4227   -3.2999    0.0000 C   0  0
    2.1389   -2.8893    0.0000 O   0  0
    2.1419   -2.0639    0.0000 C   0  0
    2.8570   -1.6525    0.0000 C   0  0
    2.8583   -0.8275    0.0000 N   0  0
    2.1445   -0.4139    0.0000 C   0  0
    1.4293   -0.8252    0.0000 C   0  0
    1.4281   -1.6502    0.0000 C   0  0
    0.7145   -0.4125    0.0000 C   0  0
    0.7145    0.4125    0.0000 C   0  0
    0.0000    0.8250    0.0000 C   0  0
   -0.7145    0.4125    0.0000 C   0  0
   -1.4986    0.6674    0.0000 N   0  0
   -1.9836    0.0000    0.0000 C   0  0
   -2.6436    0.0000    0.0000 O   0  0
   -1.4986   -0.6674    0.0000 C   0  0
   -1.7547   -1.4507    0.0000 C   0  0
   -2.5624   -1.6213    0.0000 C   0  0
   -3.1619   -1.0648    0.0000 C   0  0
   -3.8777   -1.4749    0.0000 C   0  0
   -3.7088   -2.2825    0.0000 C   0  0
   -2.8887   -2.3714    0.0000 N   0  0
   -0.7145   -0.4125    0.0000 C   0  0
    0.0000   -0.8250    0.0000 C   0  0
    0.7037   -4.5359    0.0000 C   0  0
    0.7006   -5.3614    0.0000 C   0  0
   -0.0145   -5.7728    0.0000 C   0  0
   -0.0158   -6.5978    0.0000 C   0  0
    0.6980   -7.0114    0.0000 C   0  0
    1.4131   -6.6001    0.0000 C   0  0
    1.4144   -5.7751    0.0000 C   0  0
   -2.6124   -2.8470    0.0000 H   0  0
   -1.6685    1.1905    0.0000 H   0  0
    2.1298   -5.0919    0.0000 H   0  0
    2.6101   -4.2693    0.0000 H   0  0
  1  2  1  0
  1 36  1  0
  1 37  1  0
  2  3  1  0
  2 27  1  0
  3  4  1  0
  4  5  1  0
  5  6  2  0
  6  7  1  0
  7  8  2  0
  8  9  1  0
  9 10  2  0
  9 11  1  0
 10  5  1  0
 11 12  2  0
 12 13  1  0
 13 14  2  0
 14 15  1  0
 15 16  1  0
 15 35  1  0
 16 17  2  0
 16 18  1  0
 18 19  2  0
 18 25  1  0
 19 20  1  0
 20 21  2  0
 21 22  1  0
 22 23  2  0
 23 24  1  0
 24 20  1  0
 24 34  1  0
 25 14  1  0
 25 26  2  0
 26 11  1  0
 27 28  1  0
 28 29  2  0
 29 30  1  0
 30 31  2  0
 31 32  1  0
 32 33  2  0
 33 28  1  0
M  END
> <CMPD_CHEMBLID>
CHEMBL1980407

> <STANDARD_TYPE>
Ki

> <RELATION>
=

> <STANDARD_VALUE>
63.1

> <STANDARD_UNITS>
nM

> <Molecular_Weight>
436.50506

$$$$

  SciTegic11272012012D

 30 33  0  0  0  0            999 V2000
    1.4276   -1.4867    0.0000 C   0  0
    1.4285   -0.8267    0.0000 S   0  0
    0.7144   -0.4125    0.0000 C   0  0
    0.7144    0.4125    0.0000 N   0  0
    0.0000    0.8250    0.0000 C   0  0
    0.0017    1.6504    0.0000 N   0  0
    0.7171    2.0622    0.0000 C   0  0
    0.7188    2.8876    0.0000 C   0  0
    1.4333    3.3002    0.0000 C   0  0
    1.4333    4.1252    0.0000 C   0  0
    0.7188    4.5377    0.0000 C   0  0
    0.0043    4.1252    0.0000 C   0  0
   -0.5672    4.4552    0.0000 Br  0  0
    0.0043    3.3002    0.0000 C   0  0
   -0.7144    0.4125    0.0000 C   0  0
   -1.4986    0.6674    0.0000 C   0  0
   -1.9836    0.0000    0.0000 N   0  0
   -1.4986   -0.6674    0.0000 N   0  0
   -1.7547   -1.4507    0.0000 C   0  0
   -2.5623   -1.6213    0.0000 C   0  0
   -3.0032   -1.1301    0.0000 Cl  0  0
   -2.8189   -2.4059    0.0000 C   0  0
   -3.6259   -2.5776    0.0000 C   0  0
   -3.8807   -3.3623    0.0000 C   0  0
   -3.3285   -3.9752    0.0000 C   0  0
   -2.5216   -3.8036    0.0000 C   0  0
   -2.2668   -3.0189    0.0000 C   0  0
   -0.7144   -0.4125    0.0000 C   0  0
    0.0000   -0.8250    0.0000 N   0  0
   -0.4742    1.9263    0.0000 H   0  0
  1  2  1  0
  2  3  1  0
  3  4  2  0
  4  5  1  0
  5  6  1  0
  5 15  2  0
  6  7  1  0
  6 30  1  0
  7  8  1  0
  8  9  2  0
  9 10  1  0
 10 11  2  0
 11 12  1  0
 12 13  1  0
 12 14  2  0
 14  8  1  0
 15 16  1  0
 16 17  2  0
 17 18  1  0
 18 19  1  0
 18 28  1  0
 19 20  1  0
 20 21  1  0
 20 22  1  0
 22 23  2  0
 23 24  1  0
 24 25  2  0
 25 26  1  0
 26 27  2  0
 27 22  1  0
 28 15  1  0
 28 29  2  0
 29  3  1  0
M  END
> <CMPD_CHEMBLID>
CHEMBL1629808

> <STANDARD_TYPE>
Ki

> <RELATION>
=

> <STANDARD_VALUE>
64

> <STANDARD_UNITS>
nM

> <Molecular_Weight>
488.83106

$$$$

  SciTegic11272012012D

 28 31  0  0  0  0            999 V2000
    1.4302   -0.8237    0.0000 N   0  0
    0.7144   -0.4125    0.0000 C   0  0
    0.7144    0.4125    0.0000 N   0  0
    0.0000    0.8250    0.0000 C   0  0
   -0.7144    0.4125    0.0000 N   0  0
   -0.7144   -0.4125    0.0000 C   0  0
    0.0000   -0.8250    0.0000 C   0  0
   -0.1713   -1.6316    0.0000 C   0  0
   -0.9918   -1.7178    0.0000 N   0  0
   -1.3273   -0.9641    0.0000 N   0  0
   -2.1347   -0.7924    0.0000 C   0  0
   -2.6921   -1.4022    0.0000 C   0  0
   -3.5157   -1.3543    0.0000 C   0  0
   -3.9917   -0.6804    0.0000 C   0  0
   -3.7616    0.1119    0.0000 C   0  0
   -2.9988    0.4260    0.0000 C   0  0
   -2.2775    0.0254    0.0000 C   0  0
    0.3811   -2.2449    0.0000 C   0  0
    1.1959   -2.1344    0.0000 C   0  0
    1.7002   -2.7873    0.0000 C   0  0
    1.3870   -3.5506    0.0000 C   0  0
    1.7905   -4.0728    0.0000 F   0  0
    0.5694   -3.6609    0.0000 C   0  0
    0.2544   -4.4239    0.0000 O   0  0
    0.0651   -3.0080    0.0000 C   0  0
   -0.2907   -4.4967    0.0000 H   0  0
    1.9061   -0.5481    0.0000 H   0  0
    1.4312   -1.3737    0.0000 H   0  0
  1  2  1  0
  1 27  1  0
  1 28  1  0
  2  3  2  0
  3  4  1  0
  4  5  2  0
  5  6  1  0
  6  7  2  0
  7  2  1  0
  7  8  1  0
  8  9  2  0
  8 18  1  0
  9 10  1  0
 10  6  1  0
 10 11  1  0
 11 12  1  0
 12 13  1  0
 13 14  1  0
 14 15  1  0
 15 16  1  0
 16 17  1  0
 17 11  1  0
 18 19  2  0
 19 20  1  0
 20 21  2  0
 21 22  1  0
 21 23  1  0
 23 24  1  0
 23 25  2  0
 24 26  1  0
 25 18  1  0
M  END
> <CMPD_CHEMBLID>
CHEMBL1242750

> <STANDARD_TYPE>
IC50

> <RELATION>
=

> <STANDARD_VALUE>
67

> <STANDARD_UNITS>
nM

> <Molecular_Weight>
341.3827

$$$$

  SciTegic11272012012D

 28 31  0  0  0  0            999 V2000
   -2.0134   -4.5941    0.0000 C   0  0
   -2.1705   -3.9530    0.0000 O   0  0
   -1.5746   -3.3817    0.0000 C   0  0
   -0.7828   -3.6136    0.0000 C   0  0
   -0.1861   -3.0438    0.0000 C   0  0
   -0.3810   -2.2450    0.0000 C   0  0
   -1.1730   -2.0103    0.0000 C   0  0
   -1.7697   -2.5801    0.0000 C   0  0
   -2.5614   -2.3465    0.0000 O   0  0
    0.1713   -1.6316    0.0000 C   0  0
    0.9918   -1.7179    0.0000 N   0  0
    1.3273   -0.9642    0.0000 N   0  0
    2.1348   -0.7925    0.0000 C   0  0
    2.7754   -1.2969    0.0000 C   0  0
    3.4553   -0.8296    0.0000 C   0  0
    3.2211   -0.0386    0.0000 C   0  0
    3.6230    0.4850    0.0000 C   0  0
    2.3964   -0.0169    0.0000 C   0  0
    0.7145   -0.4125    0.0000 C   0  0
    0.7145    0.4125    0.0000 N   0  0
    0.0000    0.8250    0.0000 C   0  0
   -0.7145    0.4125    0.0000 N   0  0
   -0.7145   -0.4125    0.0000 C   0  0
   -1.4302   -0.8238    0.0000 N   0  0
    0.0000   -0.8250    0.0000 C   0  0
   -1.9062   -0.5481    0.0000 H   0  0
   -1.4312   -1.3738    0.0000 H   0  0
   -2.6907   -1.8119    0.0000 H   0  0
  1  2  1  0
  2  3  1  0
  3  4  2  0
  4  5  1  0
  5  6  2  0
  6  7  1  0
  6 10  1  0
  7  8  2  0
  8  3  1  0
  8  9  1  0
  9 28  1  0
 10 11  2  0
 11 12  1  0
 12 13  1  0
 12 19  1  0
 13 14  1  0
 14 15  1  0
 15 16  1  0
 16 17  1  0
 16 18  1  0
 18 13  1  0
 19 20  2  0
 20 21  1  0
 21 22  2  0
 22 23  1  0
 23 24  1  0
 23 25  2  0
 24 26  1  0
 24 27  1  0
 25 10  1  0
 25 19  1  0
M  END
> <CMPD_CHEMBLID>
CHEMBL1242202

> <STANDARD_TYPE>
IC50

> <RELATION>
=

> <STANDARD_VALUE>
68

> <STANDARD_UNITS>
nM

> <Molecular_Weight>
339.39164

$$$$

  SciTegic11272012012D

 23 26  0  0  0  0            999 V2000
    1.4276   -1.4867    0.0000 C   0  0
    1.4285   -0.8267    0.0000 O   0  0
    0.7145   -0.4125    0.0000 C   0  0
    0.7145    0.4125    0.0000 C   0  0
    0.0000    0.8250    0.0000 C   0  0
   -0.7145    0.4125    0.0000 C   0  0
   -0.7145   -0.4125    0.0000 C   0  0
   -1.4987   -0.6674    0.0000 C   0  0
   -1.9836    0.0000    0.0000 C   0  0
   -2.7673    0.2543    0.0000 S   0  0
   -2.7673    1.0793    0.0000 C   0  0
   -3.4330    1.5650    0.0000 N   0  0
   -3.3455    2.3858    0.0000 C   0  0
   -2.7421    2.6533    0.0000 O   0  0
   -4.0123    2.8724    0.0000 C   0  0
   -4.0026    3.6904    0.0000 C   0  0
   -4.7872    3.9453    0.0000 C   0  0
   -5.2721    3.2779    0.0000 C   0  0
   -4.7873    2.6104    0.0000 S   0  0
   -1.9827    1.3342    0.0000 N   0  0
   -1.4987    0.6674    0.0000 C   0  0
    0.0000   -0.8250    0.0000 C   0  0
   -3.9358    1.3422    0.0000 H   0  0
  1  2  1  0
  2  3  1  0
  3  4  2  0
  4  5  1  0
  5  6  2  0
  6  7  1  0
  7  8  1  0
  7 22  2  0
  8  9  1  0
  9 10  1  0
 10 11  1  0
 11 12  1  0
 11 20  2  0
 12 13  1  0
 12 23  1  0
 13 14  2  0
 13 15  1  0
 15 16  2  0
 16 17  1  0
 17 18  2  0
 18 19  1  0
 19 15  1  0
 20 21  1  0
 21  6  1  0
 21  9  2  0
 22  3  1  0
M  END
> <CMPD_CHEMBLID>
CHEMBL477139

> <STANDARD_TYPE>
Ki

> <RELATION>
=

> <STANDARD_VALUE>
68

> <STANDARD_UNITS>
nM

> <Molecular_Weight>
328.40868

$$$$

  SciTegic11272012012D

 39 42  0  0  0  0            999 V2000
   -0.1742   -2.8724    0.0000 C   0  0
   -0.3789   -2.2450    0.0000 C   0  0
    0.1713   -1.6316    0.0000 N   0  0
    0.9918   -1.7178    0.0000 C   0  0
    1.3273   -0.9641    0.0000 N   0  0
    0.7144   -0.4125    0.0000 C   0  0
    0.7144    0.4125    0.0000 C   0  0
    1.4285    0.8267    0.0000 N   0  0
    1.4273    1.6521    0.0000 C   0  0
    2.1403    2.0672    0.0000 C   0  0
    2.1375    2.8922    0.0000 C   0  0
    1.4216    3.3022    0.0000 C   0  0
    0.7086    2.8872    0.0000 C   0  0
    0.7114    2.0622    0.0000 C   0  0
    1.4187    4.1276    0.0000 P   0  0
    0.8459    4.4555    0.0000 O   0  0
    0.6910    3.7052    0.0000 O   0  0
    2.1319    4.5433    0.0000 C   0  0
    2.1290    5.3688    0.0000 P   0  0
    1.5562    5.6966    0.0000 O   0  0
    2.8422    5.7844    0.0000 O   0  0
    1.4013    4.9463    0.0000 O   0  0
    0.0000    0.8250    0.0000 N   0  0
   -0.7144    0.4125    0.0000 C   0  0
   -0.7144   -0.4125    0.0000 N   0  0
    0.0000   -0.8250    0.0000 C   0  0
   -1.4293    0.8252    0.0000 C   0  0
   -1.4307    1.6502    0.0000 C   0  0
   -2.1458    2.0616    0.0000 C   0  0
   -2.8596    1.6480    0.0000 C   0  0
   -3.5760    2.0581    0.0000 N   0  0
   -2.8583    0.8230    0.0000 C   0  0
   -2.1432    0.4116    0.0000 C   0  0
   -4.0515    1.7816    0.0000 H   0  0
   -3.5778    2.6081    0.0000 H   0  0
    0.9242    5.2199    0.0000 H   0  0
    2.8403    6.3344    0.0000 H   0  0
    0.2138    3.9787    0.0000 H   0  0
    1.9053    0.5525    0.0000 H   0  0
  1  2  1  0
  2  3  1  0
  3  4  1  0
  4  5  2  0
  5  6  1  0
  6  7  2  0
  7  8  1  0
  7 23  1  0
  8  9  1  0
  8 39  1  0
  9 10  2  0
 10 11  1  0
 11 12  2  0
 12 13  1  0
 12 15  1  0
 13 14  2  0
 14  9  1  0
 15 16  2  0
 15 17  1  0
 15 18  1  0
 17 38  1  0
 18 19  1  0
 19 20  2  0
 19 21  1  0
 19 22  1  0
 21 37  1  0
 22 36  1  0
 23 24  2  0
 24 25  1  0
 24 27  1  0
 25 26  2  0
 26  3  1  0
 26  6  1  0
 27 28  1  0
 28 29  1  0
 29 30  1  0
 30 31  1  0
 30 32  1  0
 31 34  1  0
 31 35  1  0
 32 33  1  0
 33 27  1  0
M  END
> <CMPD_CHEMBLID>
CHEMBL1084268

> <STANDARD_TYPE>
IC50

> <RELATION>
=

> <STANDARD_VALUE>
68

> <STANDARD_UNITS>
nM

> <Molecular_Weight>
494.42104

$$$$

  SciTegic11272012012D

 28 31  0  0  0  0            999 V2000
    1.5698   -3.2214    0.0000 Br  0  0
    2.1414   -2.8914    0.0000 C   0  0
    2.8558   -3.3039    0.0000 C   0  0
    3.5703   -2.8914    0.0000 C   0  0
    3.5703   -2.0664    0.0000 C   0  0
    2.8559   -1.6539    0.0000 C   0  0
    2.1413   -2.0664    0.0000 C   0  0
    1.4273   -1.6522    0.0000 C   0  0
    0.8551   -1.9812    0.0000 O   0  0
    1.4285   -0.8267    0.0000 N   0  0
    0.7145   -0.4125    0.0000 C   0  0
    0.7145    0.4125    0.0000 C   0  0
    0.0000    0.8250    0.0000 N   0  0
   -0.7145    0.4125    0.0000 C   0  0
   -1.4986    0.6674    0.0000 N   0  0
   -1.9836    0.0000    0.0000 C   0  0
   -2.8076   -0.0017    0.0000 C   0  0
   -3.2193   -0.7172    0.0000 C   0  0
   -2.8751   -1.4593    0.0000 C   0  0
   -3.4863   -2.0135    0.0000 C   0  0
   -4.2022   -1.6034    0.0000 C   0  0
   -4.0335   -0.7959    0.0000 N   0  0
   -1.4986   -0.6674    0.0000 C   0  0
   -0.7145   -0.4125    0.0000 C   0  0
    0.0000   -0.8250    0.0000 C   0  0
   -4.4005   -0.3863    0.0000 H   0  0
   -1.6685    1.1905    0.0000 H   0  0
    1.9053   -0.5525    0.0000 H   0  0
  1  2  1  0
  2  3  2  0
  3  4  1  0
  4  5  2  0
  5  6  1  0
  6  7  2  0
  7  2  1  0
  7  8  1  0
  8  9  2  0
  8 10  1  0
 10 11  1  0
 10 28  1  0
 11 12  2  0
 12 13  1  0
 13 14  2  0
 14 15  1  0
 15 16  1  0
 15 27  1  0
 16 17  1  0
 16 23  2  0
 17 18  1  0
 18 19  2  0
 19 20  1  0
 20 21  2  0
 21 22  1  0
 22 18  1  0
 22 26  1  0
 23 24  1  0
 24 14  1  0
 24 25  2  0
 25 11  1  0
M  END
> <CMPD_CHEMBLID>
CHEMBL3347621

> <STANDARD_TYPE>
IC50

> <RELATION>
=

> <STANDARD_VALUE>
68.13

> <STANDARD_UNITS>
nM

> <Molecular_Weight>
395.2526

$$$$

  SciTegic11272012012D

 40 44  0  0  0  0            999 V2000
   -8.0924    0.7225    0.0000 C   0  0
   -7.8908    0.0941    0.0000 N   0  0
   -8.4451   -0.5169    0.0000 C   0  0
   -8.1930   -1.3025    0.0000 C   0  0
   -7.3867   -1.4771    0.0000 N   0  0
   -7.1329   -2.2625    0.0000 C   0  0
   -6.3259   -2.4360    0.0000 C   0  0
   -5.7738   -1.8230    0.0000 C   0  0
   -4.9668   -1.9947    0.0000 C   0  0
   -4.7120   -2.7794    0.0000 C   0  0
   -3.9050   -2.9528    0.0000 N   0  0
   -3.6512   -3.7383    0.0000 C   0  0
   -4.0938   -4.2279    0.0000 O   0  0
   -2.8442   -3.9117    0.0000 C   0  0
   -2.5894   -4.6964    0.0000 C   0  0
   -1.7825   -4.8681    0.0000 C   0  0
   -1.2303   -4.2551    0.0000 C   0  0
   -0.5848   -4.3925    0.0000 C   0  0
   -1.4851   -3.4705    0.0000 C   0  0
   -2.2920   -3.2988    0.0000 C   0  0
   -0.9327   -2.8571    0.0000 C   0  0
   -0.3802   -2.2438    0.0000 C   0  0
    0.1713   -1.6316    0.0000 C   0  0
    0.9917   -1.7178    0.0000 C   0  0
    1.3273   -0.9641    0.0000 N   0  0
    0.7144   -0.4125    0.0000 C   0  0
    0.7144    0.4125    0.0000 N   0  0
    0.0000    0.8250    0.0000 C   0  0
   -0.7144    0.4125    0.0000 C   0  0
   -0.7144   -0.4125    0.0000 C   0  0
    0.0000   -0.8250    0.0000 N   0  0
   -5.2643   -3.3924    0.0000 C   0  0
   -6.0712   -3.2207    0.0000 C   0  0
   -6.6236   -3.8339    0.0000 C   0  0
   -6.4202   -4.4618    0.0000 F   0  0
   -7.2692   -3.6964    0.0000 F   0  0
   -7.0656   -4.3241    0.0000 F   0  0
   -6.8325   -0.8660    0.0000 C   0  0
   -7.0845   -0.0804    0.0000 C   0  0
   -3.5362   -2.5448    0.0000 H   0  0
  1  2  1  0
  2  3  1  0
  3  4  1  0
  4  5  1  0
  5  6  1  0
  5 38  1  0
  6  7  1  0
  7  8  2  0
  8  9  1  0
  9 10  2  0
 10 11  1  0
 10 32  1  0
 11 12  1  0
 11 40  1  0
 12 13  2  0
 12 14  1  0
 14 15  2  0
 15 16  1  0
 16 17  2  0
 17 18  1  0
 17 19  1  0
 19 20  2  0
 19 21  1  0
 20 14  1  0
 21 22  3  0
 22 23  1  0
 23 24  2  0
 24 25  1  0
 25 26  2  0
 26 27  1  0
 27 28  2  0
 28 29  1  0
 29 30  2  0
 30 31  1  0
 31 23  1  0
 31 26  1  0
 32 33  2  0
 33  7  1  0
 33 34  1  0
 34 35  1  0
 34 36  1  0
 34 37  1  0
 38 39  1  0
 39  2  1  0
M  END
> <CMPD_CHEMBLID>
CHEMBL1171835

> <STANDARD_TYPE>
IC50

> <RELATION>
=

> <STANDARD_VALUE>
69

> <STANDARD_UNITS>
nM

> <Molecular_Weight>
532.55949

$$$$

  SciTegic11272012012D

 25 28  0  0  0  0            999 V2000
    2.2541   -3.0993    0.0000 C   0  0
    2.6435   -2.5664    0.0000 C   0  0
    3.2996   -2.6374    0.0000 C   0  0
    2.3108   -1.8125    0.0000 N   0  0
    1.5040   -1.6398    0.0000 N   0  0
    1.4293   -0.8252    0.0000 C   0  0
    0.7145   -0.4125    0.0000 C   0  0
    0.7145    0.4125    0.0000 C   0  0
    0.0000    0.8250    0.0000 C   0  0
   -0.7145    0.4125    0.0000 C   0  0
   -1.4290    0.8250    0.0000 C   0  0
   -2.1435    0.4125    0.0000 C   0  0
   -2.1435   -0.4125    0.0000 C   0  0
   -1.4290   -0.8250    0.0000 C   0  0
   -0.7145   -0.4125    0.0000 C   0  0
    0.0000   -0.8250    0.0000 C   0  0
    2.1728   -0.4850    0.0000 C   0  0
    2.4289    0.2993    0.0000 C   0  0
    1.8786    0.9146    0.0000 N   0  0
    3.2361    0.4697    0.0000 N   0  0
    3.7873   -0.1443    0.0000 C   0  0
    3.5312   -0.9285    0.0000 N   0  0
    2.7239   -1.0989    0.0000 C   0  0
    2.0501    1.4372    0.0000 H   0  0
    1.3403    0.8020    0.0000 H   0  0
  1  2  1  0
  2  3  1  0
  2  4  1  0
  4  5  1  0
  5  6  2  0
  6  7  1  0
  6 17  1  0
  7  8  2  0
  8  9  1  0
  9 10  2  0
 10 11  1  0
 11 12  2  0
 12 13  1  0
 13 14  2  0
 14 15  1  0
 15 10  1  0
 15 16  2  0
 16  7  1  0
 17 18  2  0
 18 19  1  0
 18 20  1  0
 19 24  1  0
 19 25  1  0
 20 21  2  0
 21 22  1  0
 22 23  2  0
 23  4  1  0
 23 17  1  0
M  END
> <CMPD_CHEMBLID>
CHEMBL1241489

> <STANDARD_TYPE>
Ki

> <RELATION>
=

> <STANDARD_VALUE>
69

> <STANDARD_UNITS>
nM

> <Molecular_Weight>
303.36108

$$$$

  SciTegic11272012012D

 30 33  0  0  0  0            999 V2000
    4.2815    1.4952    0.0000 C   0  0
    4.2840    0.8352    0.0000 P   0  0
    4.8569    0.5075    0.0000 O   0  0
    4.8543    1.1674    0.0000 C   0  0
    3.5706    0.4200    0.0000 C   0  0
    3.5734   -0.4050    0.0000 C   0  0
    2.8604   -0.8200    0.0000 C   0  0
    2.1444   -0.4100    0.0000 C   0  0
    1.4302   -0.8237    0.0000 N   0  0
    0.7144   -0.4125    0.0000 C   0  0
    0.7144    0.4125    0.0000 N   0  0
    0.0000    0.8250    0.0000 C   0  0
   -0.7144    0.4125    0.0000 N   0  0
   -0.7144   -0.4125    0.0000 C   0  0
    0.0000   -0.8250    0.0000 C   0  0
   -0.1713   -1.6316    0.0000 N   0  0
   -0.9918   -1.7178    0.0000 C   0  0
   -1.3273   -0.9641    0.0000 N   0  0
   -2.1336   -0.7943    0.0000 C   0  0
   -2.6852   -1.4084    0.0000 C   0  0
   -3.4930   -1.2383    0.0000 C   0  0
   -3.7478   -0.4536    0.0000 C   0  0
   -4.5548   -0.2820    0.0000 C   0  0
   -5.1069   -0.8950    0.0000 C   0  0
   -4.8521   -1.6797    0.0000 C   0  0
   -4.0452   -1.8513    0.0000 C   0  0
   -3.8413   -2.4790    0.0000 Cl  0  0
    2.1416    0.4150    0.0000 C   0  0
    2.8546    0.8300    0.0000 C   0  0
    1.4311   -1.3737    0.0000 H   0  0
  1  2  1  0
  2  3  2  0
  2  4  1  0
  2  5  1  0
  5  6  2  0
  6  7  1  0
  7  8  2  0
  8  9  1  0
  8 28  1  0
  9 10  1  0
  9 30  1  0
 10 11  2  0
 11 12  1  0
 12 13  2  0
 13 14  1  0
 14 15  2  0
 15 10  1  0
 15 16  1  0
 16 17  2  0
 17 18  1  0
 18 14  1  0
 18 19  1  0
 19 20  2  0
 20 21  1  0
 21 22  2  0
 22 23  1  0
 23 24  2  0
 24 25  1  0
 25 26  2  0
 26 21  1  0
 26 27  1  0
 28 29  2  0
 29  5  1  0
M  END
> <CMPD_CHEMBLID>
CHEMBL510891

> <STANDARD_TYPE>
IC50

> <RELATION>
=

> <STANDARD_VALUE>
69.4

> <STANDARD_UNITS>
nM

> <Molecular_Weight>
423.83522

$$$$

  SciTegic11272012012D

 31 34  0  0  0  0            999 V2000
    4.2834   -0.9922    0.0000 C   0  0
    4.2843   -1.6522    0.0000 S   0  0
    3.5703   -2.0664    0.0000 C   0  0
    3.5703   -2.8914    0.0000 C   0  0
    2.8558   -3.3038    0.0000 C   0  0
    2.1414   -2.8913    0.0000 C   0  0
    2.1413   -2.0663    0.0000 C   0  0
    1.4273   -1.6521    0.0000 C   0  0
    1.4285   -0.8267    0.0000 N   0  0
    0.7144   -0.4125    0.0000 C   0  0
    0.7144    0.4125    0.0000 N   0  0
    0.0000    0.8250    0.0000 C   0  0
   -0.7144    0.4125    0.0000 C   0  0
   -1.4290    0.8250    0.0000 C   0  0
   -2.1434    0.4125    0.0000 C   0  0
   -2.1434   -0.4125    0.0000 C   0  0
   -2.7150   -0.7425    0.0000 O   0  0
   -1.4290   -0.8250    0.0000 N   0  0
   -1.4290   -1.4850    0.0000 C   0  0
   -0.7144   -0.4125    0.0000 C   0  0
    0.0000   -0.8250    0.0000 N   0  0
   -2.8582    0.8252    0.0000 C   0  0
   -2.8596    1.6502    0.0000 C   0  0
   -2.2886    1.9812    0.0000 Cl  0  0
   -3.5747    2.0616    0.0000 C   0  0
   -4.2886    1.6480    0.0000 C   0  0
   -4.2872    0.8230    0.0000 C   0  0
   -3.5721    0.4116    0.0000 C   0  0
   -3.5711   -0.2484    0.0000 Cl  0  0
    2.8559   -1.6538    0.0000 C   0  0
    1.9053   -0.5525    0.0000 H   0  0
  1  2  1  0
  2  3  1  0
  3  4  2  0
  4  5  1  0
  5  6  2  0
  6  7  1  0
  7  8  1  0
  7 30  2  0
  8  9  1  0
  9 10  1  0
  9 31  1  0
 10 11  2  0
 11 12  1  0
 12 13  2  0
 13 14  1  0
 14 15  2  0
 15 16  1  0
 15 22  1  0
 16 17  2  0
 16 18  1  0
 18 19  1  0
 18 20  1  0
 20 13  1  0
 20 21  2  0
 21 10  1  0
 22 23  2  0
 23 24  1  0
 23 25  1  0
 25 26  2  0
 26 27  1  0
 27 28  2  0
 28 22  1  0
 28 29  1  0
 30  3  1  0
M  END
> <CMPD_CHEMBLID>
CHEMBL1223413

> <STANDARD_TYPE>
Ki

> <RELATION>
=

> <STANDARD_VALUE>
70

> <STANDARD_UNITS>
nM

> <Molecular_Weight>
457.37552

$$$$

  SciTegic11272012012D

 24 26  0  0  0  0            999 V2000
    1.2861   -0.7425    0.0000 F   0  0
    0.7145   -0.4125    0.0000 C   0  0
    0.7145    0.4125    0.0000 C   0  0
    0.0000    0.8250    0.0000 C   0  0
   -0.7145    0.4125    0.0000 C   0  0
   -0.7145   -0.4125    0.0000 C   0  0
    0.0000   -0.8250    0.0000 C   0  0
   -1.4302    0.8237    0.0000 C   0  0
   -1.4313    1.4837    0.0000 O   0  0
   -2.1445    0.4100    0.0000 N   0  0
   -2.8602    0.8213    0.0000 C   0  0
   -3.6035    0.4797    0.0000 N   0  0
   -4.1555    1.0928    0.0000 N   0  0
   -3.7430    1.8073    0.0000 C   0  0
   -4.0766    2.5608    0.0000 S   0  0
   -3.5905    3.2279    0.0000 C   0  0
   -3.9247    3.9827    0.0000 C   0  0
   -3.4397    4.6501    0.0000 C   0  0
   -3.7753    5.4038    0.0000 C   0  0
   -4.5958    5.4901    0.0000 C   0  0
   -5.0807    4.8226    0.0000 C   0  0
   -4.7451    4.0690    0.0000 C   0  0
   -2.9360    1.6358    0.0000 S   0  0
   -2.1435   -0.1400    0.0000 H   0  0
  1  2  1  0
  2  3  2  0
  3  4  1  0
  4  5  2  0
  5  6  1  0
  5  8  1  0
  6  7  2  0
  7  2  1  0
  8  9  2  0
  8 10  1  0
 10 11  1  0
 10 24  1  0
 11 12  2  0
 12 13  1  0
 13 14  2  0
 14 15  1  0
 14 23  1  0
 15 16  1  0
 16 17  1  0
 17 18  2  0
 18 19  1  0
 19 20  2  0
 20 21  1  0
 21 22  2  0
 22 17  1  0
 23 11  1  0
M  END
> <CMPD_CHEMBLID>
CHEMBL409082

> <STANDARD_TYPE>
Ki

> <RELATION>
=

> <STANDARD_VALUE>
70

> <STANDARD_UNITS>
nM

> <Molecular_Weight>
345.41438

$$$$

  SciTegic11272012012D

 23 25  0  0  0  0            999 V2000
   -0.1742   -2.8725    0.0000 C   0  0
   -0.3790   -2.2450    0.0000 C   0  0
   -1.0247   -2.1088    0.0000 C   0  0
    0.1713   -1.6316    0.0000 N   0  0
    0.9918   -1.7179    0.0000 N   0  0
    1.3273   -0.9642    0.0000 C   0  0
    2.1348   -0.7925    0.0000 C   0  0
    2.7291   -1.3607    0.0000 C   0  0
    3.5209   -1.1288    0.0000 C   0  0
    3.7159   -0.3272    0.0000 C   0  0
    3.1193    0.2426    0.0000 C   0  0
    3.3128    1.0450    0.0000 O   0  0
    2.3275    0.0107    0.0000 C   0  0
    0.7145   -0.4125    0.0000 C   0  0
    0.7145    0.4125    0.0000 C   0  0
    1.4285    0.8267    0.0000 N   0  0
    0.0000    0.8250    0.0000 N   0  0
   -0.7145    0.4125    0.0000 C   0  0
   -0.7145   -0.4125    0.0000 N   0  0
    0.0000   -0.8250    0.0000 C   0  0
    1.4277    1.3767    0.0000 H   0  0
    1.9053    0.5525    0.0000 H   0  0
    2.9145    1.4243    0.0000 H   0  0
  1  2  1  0
  2  3  1  0
  2  4  1  0
  4  5  1  0
  5  6  2  0
  6  7  1  0
  6 14  1  0
  7  8  2  0
  8  9  1  0
  9 10  2  0
 10 11  1  0
 11 12  1  0
 11 13  2  0
 12 23  1  0
 13  7  1  0
 14 15  2  0
 15 16  1  0
 15 17  1  0
 16 21  1  0
 16 22  1  0
 17 18  2  0
 18 19  1  0
 19 20  2  0
 20  4  1  0
 20 14  1  0
M  END
> <CMPD_CHEMBLID>
CHEMBL1230790

> <STANDARD_TYPE>
IC50

> <RELATION>
=

> <STANDARD_VALUE>
70

> <STANDARD_UNITS>
nM

> <Molecular_Weight>
269.3018

$$$$

  SciTegic11272012012D

 42 47  0  0  0  0            999 V2000
   -2.7954   -2.3906    0.0000 C   0  0
   -2.3943   -2.9148    0.0000 N   0  0
   -2.6479   -3.5241    0.0000 C   0  0
   -1.5771   -2.8088    0.0000 C   0  0
   -1.0091   -3.4072    0.0000 C   0  0
   -0.2645   -3.0519    0.0000 C   0  0
   -0.3810   -2.2449    0.0000 N   0  0
   -1.1835   -2.0837    0.0000 C   0  0
    0.1713   -1.6316    0.0000 C   0  0
    0.9918   -1.7178    0.0000 C   0  0
    1.3273   -0.9641    0.0000 C   0  0
    0.7144   -0.4125    0.0000 C   0  0
    0.7144    0.4125    0.0000 C   0  0
    0.0000    0.8250    0.0000 C   0  0
   -0.7144    0.4125    0.0000 C   0  0
   -0.7144   -0.4125    0.0000 C   0  0
    0.0000   -0.8250    0.0000 C   0  0
   -0.0017    1.6504    0.0000 C   0  0
    0.5693    1.9814    0.0000 O   0  0
   -0.7171    2.0622    0.0000 N   0  0
   -0.7188    2.8876    0.0000 C   0  0
   -1.4334    3.3002    0.0000 C   0  0
   -1.4334    4.1252    0.0000 C   0  0
   -0.7189    4.5377    0.0000 C   0  0
   -0.7189    5.1977    0.0000 C   0  0
   -0.0044    4.1252    0.0000 C   0  0
    0.7113    4.5365    0.0000 N   0  0
    1.4256    4.1227    0.0000 C   0  0
    2.1415    4.5328    0.0000 N   0  0
    2.8546    4.1178    0.0000 C   0  0
    2.8517    3.2928    0.0000 C   0  0
    2.1358    2.8828    0.0000 C   0  0
    1.4228    3.2977    0.0000 N   0  0
    2.1330    2.0573    0.0000 C   0  0
    2.8454    1.6412    0.0000 C   0  0
    2.8412    0.8162    0.0000 C   0  0
    2.1248    0.4073    0.0000 C   0  0
    1.4123    0.8234    0.0000 N   0  0
    1.4165    1.6484    0.0000 C   0  0
   -0.0044    3.3002    0.0000 C   0  0
    0.7122    5.0865    0.0000 H   0  0
   -1.1930    1.7863    0.0000 H   0  0
  1  2  1  0
  2  3  1  0
  2  4  1  0
  4  5  1  0
  5  6  1  0
  6  7  1  0
  7  8  1  0
  7  9  1  0
  8  4  1  0
  9 10  1  0
 10 11  1  0
 11 12  1  0
 12 13  2  0
 13 14  1  0
 14 15  2  0
 14 18  1  0
 15 16  1  0
 16 17  2  0
 17  9  1  0
 17 12  1  0
 18 19  2  0
 18 20  1  0
 20 21  1  0
 20 42  1  0
 21 22  2  0
 22 23  1  0
 23 24  2  0
 24 25  1  0
 24 26  1  0
 26 27  1  0
 26 40  2  0
 27 28  1  0
 27 41  1  0
 28 29  2  0
 29 30  1  0
 30 31  2  0
 31 32  1  0
 32 33  2  0
 32 34  1  0
 33 28  1  0
 34 35  2  0
 35 36  1  0
 36 37  2  0
 37 38  1  0
 38 39  2  0
 39 34  1  0
 40 21  1  0
M  END
> <CMPD_CHEMBLID>
CHEMBL3690081

> <STANDARD_TYPE>
IC50

> <RELATION>
=

> <STANDARD_VALUE>
70

> <STANDARD_UNITS>
nM

> <Molecular_Weight>
533.6666

$$$$

  SciTegic11272012012D

 24 26  0  0  0  0            999 V2000
   -0.1742   -2.8725    0.0000 C   0  0
   -0.3790   -2.2451    0.0000 C   0  0
   -1.0247   -2.1088    0.0000 C   0  0
    0.1713   -1.6316    0.0000 N   0  0
    0.9918   -1.7179    0.0000 N   0  0
    1.3274   -0.9642    0.0000 C   0  0
    2.1348   -0.7925    0.0000 C   0  0
    2.3276    0.0107    0.0000 C   0  0
    3.1193    0.2426    0.0000 C   0  0
    3.7160   -0.3272    0.0000 C   0  0
    4.5087   -0.0969    0.0000 O   0  0
    3.5209   -1.1289    0.0000 C   0  0
    2.7292   -1.3607    0.0000 C   0  0
    2.5729   -2.0020    0.0000 C   0  0
    0.7145   -0.4125    0.0000 C   0  0
    0.7145    0.4125    0.0000 C   0  0
    1.4285    0.8267    0.0000 N   0  0
    0.0000    0.8250    0.0000 N   0  0
   -0.7145    0.4125    0.0000 C   0  0
   -0.7145   -0.4125    0.0000 N   0  0
    0.0000   -0.8250    0.0000 C   0  0
    1.4277    1.3768    0.0000 H   0  0
    1.9053    0.5526    0.0000 H   0  0
    4.9060   -0.4773    0.0000 H   0  0
  1  2  1  0
  2  3  1  0
  2  4  1  0
  4  5  1  0
  5  6  2  0
  6  7  1  0
  6 15  1  0
  7  8  2  0
  8  9  1  0
  9 10  2  0
 10 11  1  0
 10 12  1  0
 11 24  1  0
 12 13  2  0
 13  7  1  0
 13 14  1  0
 15 16  2  0
 16 17  1  0
 16 18  1  0
 17 22  1  0
 17 23  1  0
 18 19  2  0
 19 20  1  0
 20 21  2  0
 21  4  1  0
 21 15  1  0
M  END
> <CMPD_CHEMBLID>
CHEMBL1242024

> <STANDARD_TYPE>
IC50

> <RELATION>
=

> <STANDARD_VALUE>
70

> <STANDARD_UNITS>
nM

> <Molecular_Weight>
283.32838

$$$$

  SciTegic11272012012D

 23 25  0  0  0  0            999 V2000
    2.1404   -2.7264    0.0000 C   0  0
    2.1413   -2.0663    0.0000 S   0  0
    1.4273   -1.6521    0.0000 C   0  0
    1.4285   -0.8267    0.0000 N   0  0
    0.7144   -0.4125    0.0000 C   0  0
    0.7144    0.4125    0.0000 C   0  0
    0.0000    0.8250    0.0000 C   0  0
    0.0000    1.6500    0.0000 C   0  0
   -0.7145    2.0625    0.0000 C   0  0
   -1.4290    1.6500    0.0000 C   0  0
   -1.4290    0.8250    0.0000 C   0  0
   -0.7144    0.4125    0.0000 C   0  0
   -0.7144   -0.4125    0.0000 C   0  0
    0.0000   -0.8250    0.0000 N   0  0
   -2.1438    2.0627    0.0000 C   0  0
   -2.8576    1.6491    0.0000 C   0  0
   -3.5728    2.0605    0.0000 C   0  0
   -4.1438    1.7295    0.0000 F   0  0
   -3.5741    2.8855    0.0000 C   0  0
   -2.8603    3.2991    0.0000 C   0  0
   -2.1452    2.8877    0.0000 C   0  0
   -1.5741    3.2187    0.0000 Cl  0  0
    1.9053   -0.5525    0.0000 H   0  0
  1  2  1  0
  2  3  1  0
  3  4  1  0
  4  5  1  0
  4 23  1  0
  5  6  2  0
  6  7  1  0
  7  8  2  0
  8  9  1  0
  9 10  2  0
 10 11  1  0
 10 15  1  0
 11 12  2  0
 12  7  1  0
 12 13  1  0
 13 14  2  0
 14  5  1  0
 15 16  2  0
 16 17  1  0
 17 18  1  0
 17 19  2  0
 19 20  1  0
 20 21  2  0
 21 15  1  0
 21 22  1  0
M  END
> <CMPD_CHEMBLID>
CHEMBL3684998

> <STANDARD_TYPE>
Ki

> <RELATION>
=

> <STANDARD_VALUE>
72

> <STANDARD_UNITS>
nM

> <Molecular_Weight>
332.82286

$$$$

  SciTegic11272012012D

 27 30  0  0  0  0            999 V2000
    1.4302   -0.8238    0.0000 N   0  0
    0.7145   -0.4125    0.0000 C   0  0
    0.7145    0.4125    0.0000 N   0  0
    0.0000    0.8250    0.0000 C   0  0
   -0.7145    0.4125    0.0000 N   0  0
   -0.7145   -0.4125    0.0000 C   0  0
    0.0000   -0.8250    0.0000 C   0  0
   -0.1713   -1.6316    0.0000 C   0  0
   -0.9918   -1.7178    0.0000 N   0  0
   -1.3273   -0.9642    0.0000 N   0  0
   -2.1348   -0.7925    0.0000 C   0  0
   -2.7754   -1.2969    0.0000 C   0  0
   -3.4553   -0.8297    0.0000 C   0  0
   -3.2211   -0.0386    0.0000 N   0  0
   -2.3964   -0.0169    0.0000 C   0  0
    0.3811   -2.2450    0.0000 C   0  0
    1.1959   -2.1345    0.0000 C   0  0
    1.7002   -2.7874    0.0000 C   0  0
    1.3870   -3.5506    0.0000 C   0  0
    1.7905   -4.0729    0.0000 F   0  0
    0.5694   -3.6610    0.0000 C   0  0
    0.2544   -4.4240    0.0000 O   0  0
    0.0651   -3.0081    0.0000 C   0  0
   -0.2907   -4.4968    0.0000 H   0  0
   -3.5560    0.3977    0.0000 H   0  0
    1.9062   -0.5481    0.0000 H   0  0
    1.4312   -1.3738    0.0000 H   0  0
  1  2  1  0
  1 26  1  0
  1 27  1  0
  2  3  2  0
  3  4  1  0
  4  5  2  0
  5  6  1  0
  6  7  2  0
  7  2  1  0
  7  8  1  0
  8  9  2  0
  8 16  1  0
  9 10  1  0
 10  6  1  0
 10 11  1  0
 11 12  1  0
 12 13  1  0
 13 14  1  0
 14 15  1  0
 14 25  1  0
 15 11  1  0
 16 17  2  0
 17 18  1  0
 18 19  2  0
 19 20  1  0
 19 21  1  0
 21 22  1  0
 21 23  2  0
 22 24  1  0
 23 16  1  0
M  END
> <CMPD_CHEMBLID>
CHEMBL1242657

> <STANDARD_TYPE>
IC50

> <RELATION>
=

> <STANDARD_VALUE>
72

> <STANDARD_UNITS>
nM

> <Molecular_Weight>
314.3176

$$$$

  SciTegic11272012012D

 38 41  0  0  0  0            999 V2000
    1.2861   -0.7425    0.0000 C   0  0
    0.7144   -0.4125    0.0000 N   0  0
    0.7144    0.4125    0.0000 C   0  0
    0.0000    0.8250    0.0000 C   0  0
   -0.7144    0.4125    0.0000 N   0  0
   -1.4302    0.8237    0.0000 C   0  0
   -2.1444    0.4100    0.0000 C   0  0
   -2.1416   -0.4150    0.0000 C   0  0
   -2.8546   -0.8300    0.0000 C   0  0
   -3.5706   -0.4200    0.0000 C   0  0
   -4.2849   -0.8337    0.0000 N   0  0
   -5.0006   -0.4225    0.0000 C   0  0
   -5.0017    0.2375    0.0000 O   0  0
   -5.7149   -0.8362    0.0000 C   0  0
   -6.4307   -0.4261    0.0000 C   0  0
   -7.1438   -0.8411    0.0000 C   0  0
   -7.1409   -1.6661    0.0000 C   0  0
   -7.7114   -1.9980    0.0000 C   0  0
   -6.4251   -2.0761    0.0000 C   0  0
   -5.7120   -1.6612    0.0000 C   0  0
   -6.4223   -2.9016    0.0000 C   0  0
   -6.4194   -3.7270    0.0000 C   0  0
   -6.4166   -4.5524    0.0000 C   0  0
   -7.0824   -5.0276    0.0000 C   0  0
   -6.8247   -5.8113    0.0000 N   0  0
   -5.9997   -5.8085    0.0000 C   0  0
   -5.6100   -6.3411    0.0000 C   0  0
   -5.7475   -5.0230    0.0000 N   0  0
   -5.1218   -4.8132    0.0000 C   0  0
   -3.5734    0.4050    0.0000 C   0  0
   -2.8604    0.8200    0.0000 C   0  0
   -2.8633    1.6454    0.0000 C   0  0
   -3.4358    1.9738    0.0000 F   0  0
   -2.2927    1.9772    0.0000 F   0  0
   -2.8653    2.3054    0.0000 F   0  0
   -0.7144   -0.4125    0.0000 C   0  0
    0.0000   -0.8250    0.0000 C   0  0
   -4.2839   -1.3837    0.0000 H   0  0
  1  2  1  0
  2  3  1  0
  3  4  1  0
  4  5  1  0
  5  6  1  0
  5 36  1  0
  6  7  1  0
  7  8  2  0
  8  9  1  0
  9 10  2  0
 10 11  1  0
 10 30  1  0
 11 12  1  0
 11 38  1  0
 12 13  2  0
 12 14  1  0
 14 15  2  0
 15 16  1  0
 16 17  2  0
 17 18  1  0
 17 19  1  0
 19 20  2  0
 19 21  1  0
 20 14  1  0
 21 22  3  0
 22 23  1  0
 23 24  2  0
 24 25  1  0
 25 26  2  0
 26 27  1  0
 26 28  1  0
 28 23  1  0
 28 29  1  0
 30 31  2  0
 31  7  1  0
 31 32  1  0
 32 33  1  0
 32 34  1  0
 32 35  1  0
 36 37  1  0
 37  2  1  0
M  END
> <CMPD_CHEMBLID>
CHEMBL1784633

> <STANDARD_TYPE>
IC50

> <RELATION>
=

> <STANDARD_VALUE>
72.6

> <STANDARD_UNITS>
nM

> <Molecular_Weight>
509.56591

$$$$

  SciTegic11272012012D

 25 27  0  0  0  0            999 V2000
    1.2861   -0.7425    0.0000 Cl  0  0
    0.7145   -0.4125    0.0000 C   0  0
    0.7145    0.4125    0.0000 C   0  0
    0.0000    0.8250    0.0000 C   0  0
   -0.7145    0.4125    0.0000 C   0  0
   -0.7145   -0.4125    0.0000 C   0  0
    0.0000   -0.8250    0.0000 C   0  0
   -1.4302    0.8237    0.0000 C   0  0
   -1.4313    1.4837    0.0000 O   0  0
   -2.1445    0.4100    0.0000 N   0  0
   -2.8602    0.8213    0.0000 C   0  0
   -3.6035    0.4797    0.0000 N   0  0
   -4.1555    1.0928    0.0000 N   0  0
   -3.7430    1.8073    0.0000 C   0  0
   -4.0766    2.5608    0.0000 S   0  0
   -3.5905    3.2279    0.0000 C   0  0
   -3.9247    3.9827    0.0000 C   0  0
   -3.4397    4.6501    0.0000 C   0  0
   -3.7753    5.4038    0.0000 C   0  0
   -4.5958    5.4901    0.0000 C   0  0
   -5.0807    4.8226    0.0000 C   0  0
   -5.7371    4.8917    0.0000 Cl  0  0
   -4.7451    4.0690    0.0000 C   0  0
   -2.9360    1.6358    0.0000 S   0  0
   -2.1435   -0.1400    0.0000 H   0  0
  1  2  1  0
  2  3  2  0
  3  4  1  0
  4  5  2  0
  5  6  1  0
  5  8  1  0
  6  7  2  0
  7  2  1  0
  8  9  2  0
  8 10  1  0
 10 11  1  0
 10 25  1  0
 11 12  2  0
 12 13  1  0
 13 14  2  0
 14 15  1  0
 14 24  1  0
 15 16  1  0
 16 17  1  0
 17 18  2  0
 18 19  1  0
 19 20  2  0
 20 21  1  0
 21 22  1  0
 21 23  2  0
 23 17  1  0
 24 11  1  0
M  END
> <CMPD_CHEMBLID>
CHEMBL272999

> <STANDARD_TYPE>
Ki

> <RELATION>
=

> <STANDARD_VALUE>
73

> <STANDARD_UNITS>
nM

> <Molecular_Weight>
396.31404

$$$$

  SciTegic11272012012D

 45 49  0  0  0  0            999 V2000
    3.4216    4.7490    0.0000 C   0  0
    4.0775    4.8221    0.0000 C   0  0
    4.3419    5.4268    0.0000 C   0  0
    3.6861    5.3535    0.0000 C   0  0
    4.5664    4.1588    0.0000 C   0  0
    4.3170    3.3724    0.0000 C   0  0
    4.9877    2.9042    0.0000 C   0  0
    4.9917    2.0787    0.0000 N   0  0
    4.2791    1.6621    0.0000 C   0  0
    3.7059    1.9891    0.0000 O   0  0
    4.2832    0.8366    0.0000 N   0  0
    3.5706    0.4200    0.0000 C   0  0
    3.5735   -0.4050    0.0000 C   0  0
    2.8604   -0.8200    0.0000 C   0  0
    2.1445   -0.4100    0.0000 C   0  0
    1.4302   -0.8237    0.0000 N   0  0
    0.7145   -0.4125    0.0000 C   0  0
    0.7145    0.4125    0.0000 N   0  0
    0.0000    0.8250    0.0000 C   0  0
   -0.7145    0.4125    0.0000 N   0  0
   -0.7145   -0.4125    0.0000 C   0  0
   -1.4290   -0.8250    0.0000 C   0  0
   -1.4290   -1.6500    0.0000 C   0  0
   -0.7145   -2.0625    0.0000 C   0  0
   -0.7127   -2.8879    0.0000 N   0  0
    0.0000   -1.6500    0.0000 C   0  0
    0.0000   -0.8250    0.0000 C   0  0
    2.1417    0.4150    0.0000 C   0  0
    2.8547    0.8300    0.0000 C   0  0
    5.6518    3.3817    0.0000 N   0  0
    5.3914    4.1646    0.0000 N   0  0
    6.4371    3.1274    0.0000 C   0  0
    6.6716    2.3395    0.0000 C   0  0
    7.4742    2.1484    0.0000 C   0  0
    8.0409    2.7480    0.0000 C   0  0
    7.8051    3.5385    0.0000 C   0  0
    8.3709    4.1396    0.0000 N   0  0
    7.0025    3.7296    0.0000 C   0  0
    8.2129    4.6664    0.0000 H   0  0
    8.9062    4.0131    0.0000 H   0  0
   -0.2361   -3.1623    0.0000 H   0  0
   -1.1886   -3.1638    0.0000 H   0  0
    1.4312   -1.3737    0.0000 H   0  0
    4.7609    0.5641    0.0000 H   0  0
    5.4694    1.8062    0.0000 H   0  0
  1  2  1  0
  2  3  1  0
  2  4  1  0
  2  5  1  0
  5  6  1  0
  6  7  2  0
  7  8  1  0
  7 30  1  0
  8  9  1  0
  8 45  1  0
  9 10  2  0
  9 11  1  0
 11 12  1  0
 11 44  1  0
 12 13  2  0
 13 14  1  0
 14 15  2  0
 15 16  1  0
 15 28  1  0
 16 17  1  0
 16 43  1  0
 17 18  2  0
 18 19  1  0
 19 20  2  0
 20 21  1  0
 21 22  2  0
 22 23  1  0
 23 24  2  0
 24 25  1  0
 24 26  1  0
 25 41  1  0
 25 42  1  0
 26 27  2  0
 27 17  1  0
 27 21  1  0
 28 29  2  0
 29 12  1  0
 30 31  1  0
 30 32  1  0
 31  5  2  0
 32 33  2  0
 33 34  1  0
 34 35  2  0
 35 36  1  0
 36 37  1  0
 36 38  2  0
 37 39  1  0
 37 40  1  0
 38 32  1  0
M  END
> <CMPD_CHEMBLID>
CHEMBL2403815

> <STANDARD_TYPE>
IC50

> <RELATION>
=

> <STANDARD_VALUE>
73

> <STANDARD_UNITS>
nM

> <Molecular_Weight>
507.58956

$$$$

  SciTegic11272012012D

 36 39  0  0  0  0            999 V2000
    6.2869    0.5129    0.0000 C   0  0
    5.7139    0.8406    0.0000 C   0  0
    5.0005    0.4254    0.0000 C   0  0
    4.2840    0.8352    0.0000 P   0  0
    4.2815    1.4952    0.0000 O   0  0
    5.0105    1.2597    0.0000 C   0  0
    5.0067    2.0851    0.0000 C   0  0
    5.5766    2.4181    0.0000 C   0  0
    3.5706    0.4200    0.0000 C   0  0
    3.5734   -0.4050    0.0000 C   0  0
    2.8604   -0.8200    0.0000 C   0  0
    2.1444   -0.4100    0.0000 C   0  0
    1.4301   -0.8237    0.0000 N   0  0
    0.7144   -0.4125    0.0000 C   0  0
    0.7144    0.4125    0.0000 N   0  0
    0.0000    0.8250    0.0000 C   0  0
   -0.7144    0.4125    0.0000 N   0  0
   -0.7144   -0.4125    0.0000 C   0  0
    0.0000   -0.8250    0.0000 C   0  0
   -0.1713   -1.6316    0.0000 N   0  0
   -0.9917   -1.7178    0.0000 C   0  0
   -1.3273   -0.9641    0.0000 N   0  0
   -2.1336   -0.7943    0.0000 C   0  0
   -2.6852   -1.4084    0.0000 C   0  0
   -3.4930   -1.2383    0.0000 C   0  0
   -4.0452   -1.8513    0.0000 C   0  0
   -4.8520   -1.6797    0.0000 C   0  0
   -5.1069   -0.8950    0.0000 C   0  0
   -4.5548   -0.2820    0.0000 C   0  0
   -3.7478   -0.4536    0.0000 C   0  0
   -0.0017    1.6504    0.0000 C   0  0
   -0.5738    1.9796    0.0000 C   0  0
    0.5693    1.9814    0.0000 C   0  0
    2.1416    0.4150    0.0000 C   0  0
    2.8546    0.8300    0.0000 C   0  0
    1.4311   -1.3737    0.0000 H   0  0
  1  2  1  0
  2  3  1  0
  3  4  1  0
  4  5  2  0
  4  6  1  0
  4  9  1  0
  6  7  1  0
  7  8  1  0
  9 10  2  0
 10 11  1  0
 11 12  2  0
 12 13  1  0
 12 34  1  0
 13 14  1  0
 13 36  1  0
 14 15  2  0
 15 16  1  0
 16 17  2  0
 16 31  1  0
 17 18  1  0
 18 19  2  0
 19 14  1  0
 19 20  1  0
 20 21  2  0
 21 22  1  0
 22 18  1  0
 22 23  1  0
 23 24  2  0
 24 25  1  0
 25 26  2  0
 26 27  1  0
 27 28  2  0
 28 29  1  0
 29 30  2  0
 30 25  1  0
 31 32  1  0
 31 33  1  0
 34 35  2  0
 35  9  1  0
M  END
> <CMPD_CHEMBLID>
CHEMBL488658

> <STANDARD_TYPE>
IC50

> <RELATION>
=

> <STANDARD_VALUE>
73.3

> <STANDARD_UNITS>
nM

> <Molecular_Weight>
487.57622

$$$$

  SciTegic11272012012D

 24 26  0  0  0  0            999 V2000
   -0.1742   -2.8725    0.0000 C   0  0
   -0.3790   -2.2450    0.0000 C   0  0
   -1.0247   -2.1088    0.0000 C   0  0
    0.1713   -1.6316    0.0000 N   0  0
    0.9918   -1.7179    0.0000 N   0  0
    1.3274   -0.9642    0.0000 C   0  0
    2.1348   -0.7925    0.0000 C   0  0
    2.3276    0.0107    0.0000 C   0  0
    3.1193    0.2426    0.0000 C   0  0
    3.7160   -0.3272    0.0000 C   0  0
    3.5209   -1.1289    0.0000 C   0  0
    4.1191   -1.6977    0.0000 O   0  0
    2.7291   -1.3607    0.0000 C   0  0
    2.5729   -2.0019    0.0000 F   0  0
    0.7145   -0.4125    0.0000 C   0  0
    0.7145    0.4125    0.0000 C   0  0
    1.4285    0.8267    0.0000 N   0  0
    0.0000    0.8250    0.0000 N   0  0
   -0.7145    0.4125    0.0000 C   0  0
   -0.7145   -0.4125    0.0000 N   0  0
    0.0000   -0.8250    0.0000 C   0  0
    1.4277    1.3767    0.0000 H   0  0
    1.9053    0.5525    0.0000 H   0  0
    4.6467   -1.5424    0.0000 H   0  0
  1  2  1  0
  2  3  1  0
  2  4  1  0
  4  5  1  0
  5  6  2  0
  6  7  1  0
  6 15  1  0
  7  8  2  0
  8  9  1  0
  9 10  2  0
 10 11  1  0
 11 12  1  0
 11 13  2  0
 12 24  1  0
 13  7  1  0
 13 14  1  0
 15 16  2  0
 16 17  1  0
 16 18  1  0
 17 22  1  0
 17 23  1  0
 18 19  2  0
 19 20  1  0
 20 21  2  0
 21  4  1  0
 21 15  1  0
M  END
> <CMPD_CHEMBLID>
CHEMBL1242110

> <STANDARD_TYPE>
IC50

> <RELATION>
=

> <STANDARD_VALUE>
75

> <STANDARD_UNITS>
nM

> <Molecular_Weight>
287.29226

$$$$

  SciTegic11272012012D

 39 43  0  0  0  0            999 V2000
   -2.4959   -2.6711    0.0000 C   0  0
   -2.2921   -3.2988    0.0000 C   0  0
   -2.8442   -3.9117    0.0000 C   0  0
   -2.5894   -4.6964    0.0000 C   0  0
   -1.7825   -4.8681    0.0000 C   0  0
   -1.2303   -4.2551    0.0000 C   0  0
   -1.4851   -3.4705    0.0000 C   0  0
   -0.9327   -2.8571    0.0000 C   0  0
   -0.3802   -2.2438    0.0000 C   0  0
    0.1713   -1.6316    0.0000 C   0  0
    0.9918   -1.7178    0.0000 C   0  0
    1.3273   -0.9641    0.0000 N   0  0
    0.7144   -0.4125    0.0000 C   0  0
    0.7144    0.4125    0.0000 C   0  0
    0.0000    0.8250    0.0000 C   0  0
   -0.7144    0.4125    0.0000 C   0  0
   -0.7144   -0.4125    0.0000 C   0  0
    0.0000   -0.8250    0.0000 N   0  0
   -1.5260   -5.6527    0.0000 C   0  0
   -1.9668   -6.1438    0.0000 O   0  0
   -0.7184   -5.8233    0.0000 N   0  0
   -0.4618   -6.6079    0.0000 C   0  0
    0.3452   -6.7796    0.0000 C   0  0
    0.5999   -7.5643    0.0000 C   0  0
    0.0478   -8.1772    0.0000 C   0  0
    0.3044   -8.9618    0.0000 C   0  0
    1.1120   -9.1325    0.0000 N   0  0
    1.3695   -9.9162    0.0000 C   0  0
    2.1771  -10.0851    0.0000 C   0  0
    2.7271   -9.4702    0.0000 O   0  0
    2.4696   -8.6864    0.0000 C   0  0
    1.6621   -8.5175    0.0000 C   0  0
   -0.7591   -8.0056    0.0000 C   0  0
   -1.0139   -7.2210    0.0000 C   0  0
   -1.3116   -8.6189    0.0000 C   0  0
   -1.1081   -9.2468    0.0000 F   0  0
   -1.9571   -8.4814    0.0000 F   0  0
   -1.7535   -9.1091    0.0000 F   0  0
   -0.3510   -5.4140    0.0000 H   0  0
  1  2  1  0
  2  3  2  0
  3  4  1  0
  4  5  2  0
  5  6  1  0
  5 19  1  0
  6  7  2  0
  7  2  1  0
  7  8  1  0
  8  9  3  0
  9 10  1  0
 10 11  2  0
 11 12  1  0
 12 13  2  0
 13 14  1  0
 14 15  2  0
 15 16  1  0
 16 17  2  0
 17 18  1  0
 18 10  1  0
 18 13  1  0
 19 20  2  0
 19 21  1  0
 21 22  1  0
 21 39  1  0
 22 23  2  0
 23 24  1  0
 24 25  2  0
 25 26  1  0
 25 33  1  0
 26 27  1  0
 27 28  1  0
 28 29  1  0
 29 30  1  0
 30 31  1  0
 31 32  1  0
 32 27  1  0
 33 34  2  0
 33 35  1  0
 34 22  1  0
 35 36  1  0
 35 37  1  0
 35 38  1  0
M  END
> <CMPD_CHEMBLID>
CHEMBL1171283

> <STANDARD_TYPE>
IC50

> <RELATION>
=

> <STANDARD_VALUE>
78

> <STANDARD_UNITS>
nM

> <Molecular_Weight>
518.52961

$$$$

  SciTegic11272012012D

 18 19  0  0  0  0            999 V2000
    1.9982   -1.9833    0.0000 C   0  0
    1.4273   -1.6522    0.0000 N   0  0
    0.8552   -1.9812    0.0000 C   0  0
    1.4285   -0.8267    0.0000 C   0  0
    0.7145   -0.4125    0.0000 C   0  0
    0.7145    0.4125    0.0000 C   0  0
    1.4302    0.8238    0.0000 O   0  0
    0.0000    0.8250    0.0000 C   0  0
    0.0000    1.6500    0.0000 N   0  0
   -0.7145    2.0625    0.0000 C   0  0
   -1.4290    1.6500    0.0000 C   0  0
   -1.4290    0.8250    0.0000 C   0  0
   -2.0006    0.4950    0.0000 O   0  0
   -0.7145    0.4125    0.0000 N   0  0
   -0.7145   -0.4125    0.0000 C   0  0
    0.0000   -0.8250    0.0000 C   0  0
   -0.7145    2.7226    0.0000 C   0  0
    1.9061    0.5481    0.0000 H   0  0
  1  2  1  0
  2  3  1  0
  2  4  1  0
  4  5  1  0
  5  6  2  0
  6  7  1  0
  6  8  1  0
  7 18  1  0
  8  9  2  0
  9 10  1  0
 10 11  2  0
 10 17  1  0
 11 12  1  0
 12 13  2  0
 12 14  1  0
 14  8  1  0
 14 15  1  0
 15 16  2  0
 16  5  1  0
M  END
> <CMPD_CHEMBLID>
CHEMBL1988581

> <STANDARD_TYPE>
Ki

> <RELATION>
=

> <STANDARD_VALUE>
79.43

> <STANDARD_UNITS>
nM

> <Molecular_Weight>
233.2664

$$$$

  SciTegic11272012012D

 37 40  0  0  0  0            999 V2000
    0.2014   -2.2716    0.0000 N   0  0
    0.7144   -1.6249    0.0000 C   0  0
    1.5302   -1.7479    0.0000 N   0  0
    2.0446   -1.1029    0.0000 C   0  0
    1.7432   -0.3349    0.0000 N   0  0
    0.9268   -0.2115    0.0000 C   0  0
    0.7433    0.5928    0.0000 N   0  0
    0.0000    0.9507    0.0000 C   0  0
   -0.7433    0.5927    0.0000 C   0  0
   -0.9268   -0.2116    0.0000 C   0  0
   -0.4125   -0.8566    0.0000 N   0  0
    0.4125   -0.8566    0.0000 C   0  0
   -1.7316   -0.3952    0.0000 C   0  0
   -2.2629    0.2386    0.0000 C   0  0
   -3.0756    0.0965    0.0000 C   0  0
   -3.3587   -0.6784    0.0000 C   0  0
   -4.1715   -0.8224    0.0000 N   0  0
   -4.4538   -1.5981    0.0000 C   0  0
   -4.0293   -2.1034    0.0000 O   0  0
   -5.2666   -1.7420    0.0000 N   0  0
   -5.5488   -2.5177    0.0000 C   0  0
   -6.3609   -2.6628    0.0000 C   0  0
   -6.6414   -3.4387    0.0000 C   0  0
   -6.1097   -4.0695    0.0000 C   0  0
   -5.2976   -3.9245    0.0000 C   0  0
   -5.0171   -3.1486    0.0000 C   0  0
   -4.7656   -4.5556    0.0000 C   0  0
   -4.9896   -5.1765    0.0000 F   0  0
   -4.1160   -4.4394    0.0000 F   0  0
   -4.3401   -5.0601    0.0000 F   0  0
   -2.8293   -1.3111    0.0000 C   0  0
   -2.0167   -1.1689    0.0000 C   0  0
   -5.6202   -1.3209    0.0000 H   0  0
   -4.5253   -0.4012    0.0000 H   0  0
    1.1733    0.9357    0.0000 H   0  0
    0.4033   -2.7832    0.0000 H   0  0
   -0.3426   -2.1908    0.0000 H   0  0
  1  2  1  0
  1 36  1  0
  1 37  1  0
  2  3  2  0
  3  4  1  0
  4  5  2  0
  5  6  1  0
  6  7  1  0
  7  8  1  0
  7 35  1  0
  8  9  1  0
  9 10  1  0
 10 11  2  0
 10 13  1  0
 11 12  1  0
 12  2  1  0
 12  6  2  0
 13 14  2  0
 14 15  1  0
 15 16  2  0
 16 17  1  0
 16 31  1  0
 17 18  1  0
 17 34  1  0
 18 19  2  0
 18 20  1  0
 20 21  1  0
 20 33  1  0
 21 22  2  0
 22 23  1  0
 23 24  2  0
 24 25  1  0
 25 26  2  0
 25 27  1  0
 26 21  1  0
 27 28  1  0
 27 29  1  0
 27 30  1  0
 31 32  2  0
 32 13  1  0
M  END
> <CMPD_CHEMBLID>
CHEMBL260092

> <STANDARD_TYPE>
Ki

> <RELATION>
=

> <STANDARD_VALUE>
79.43

> <STANDARD_UNITS>
nM

> <Molecular_Weight>
441.40913

$$$$

  SciTegic11272012012D

 30 33  0  0  0  0            999 V2000
    2.2534   -3.0994    0.0000 C   0  0
    2.6430   -2.5666    0.0000 N   0  0
    2.3105   -1.8126    0.0000 C   0  0
    2.7242   -1.0988    0.0000 N   0  0
    2.1731   -0.4848    0.0000 C   0  0
    2.3075    0.1614    0.0000 C   0  0
    1.4293   -0.8252    0.0000 C   0  0
    1.5039   -1.6398    0.0000 S   0  0
    0.7144   -0.4125    0.0000 C   0  0
    0.7144    0.4125    0.0000 C   0  0
    0.0000    0.8250    0.0000 C   0  0
   -0.7144    0.4125    0.0000 N   0  0
   -0.7144   -0.4125    0.0000 C   0  0
   -1.4285   -0.8267    0.0000 N   0  0
   -1.4273   -1.6521    0.0000 C   0  0
   -2.1403   -2.0672    0.0000 C   0  0
   -2.1375   -2.8922    0.0000 C   0  0
   -1.4216   -3.3022    0.0000 C   0  0
   -0.7086   -2.8872    0.0000 C   0  0
   -0.7114   -2.0622    0.0000 C   0  0
   -1.4187   -4.1276    0.0000 N   0  0
   -2.1311   -4.5438    0.0000 C   0  0
   -2.1270   -5.3688    0.0000 C   0  0
   -1.4104   -5.7776    0.0000 N   0  0
   -0.6980   -5.3616    0.0000 C   0  0
   -0.7022   -4.5366    0.0000 C   0  0
    0.0000   -0.8250    0.0000 N   0  0
   -1.4076   -6.3276    0.0000 H   0  0
   -1.9053   -0.5525    0.0000 H   0  0
    3.1897   -2.6259    0.0000 H   0  0
  1  2  1  0
  2  3  1  0
  2 30  1  0
  3  4  2  0
  4  5  1  0
  5  6  1  0
  5  7  2  0
  7  8  1  0
  7  9  1  0
  8  3  1  0
  9 10  2  0
 10 11  1  0
 11 12  2  0
 12 13  1  0
 13 14  1  0
 13 27  2  0
 14 15  1  0
 14 29  1  0
 15 16  2  0
 16 17  1  0
 17 18  2  0
 18 19  1  0
 18 21  1  0
 19 20  2  0
 20 15  1  0
 21 22  1  0
 22 23  1  0
 23 24  1  0
 24 25  1  0
 24 28  1  0
 25 26  1  0
 26 21  1  0
 27  9  1  0
M  END
> <CMPD_CHEMBLID>
CHEMBL1999484

> <STANDARD_TYPE>
Ki

> <RELATION>
=

> <STANDARD_VALUE>
79.43

> <STANDARD_UNITS>
nM

> <Molecular_Weight>
381.49782

$$$$

  SciTegic11272012012D

 36 38  0  0  0  0            999 V2000
    0.8168   -3.1640    0.0000 N   0  0
    1.5995   -3.4262    0.0000 C   0  0
    1.7306   -4.0731    0.0000 O   0  0
    2.2172   -2.8808    0.0000 C   0  0
    3.0242   -3.0524    0.0000 C   0  0
    3.3609   -3.8045    0.0000 N   0  0
    4.1820   -3.8896    0.0000 C   0  0
    4.5690   -3.3549    0.0000 O   0  0
    4.5193   -4.6430    0.0000 N   0  0
    5.3403   -4.7281    0.0000 C   0  0
    5.6777   -5.4815    0.0000 C   0  0
    6.4987   -5.5666    0.0000 C   0  0
    6.8360   -6.3200    0.0000 C   0  0
    7.6571   -6.4051    0.0000 N   0  0
    8.0601   -7.1169    0.0000 C   0  0
    8.8665   -6.9426    0.0000 C   0  0
    8.9499   -6.1218    0.0000 C   0  0
    8.1951   -5.7888    0.0000 C   0  0
    3.4367   -2.3379    0.0000 S   0  0
    2.8846   -1.7248    0.0000 N   0  0
    2.1413   -2.0664    0.0000 C   0  0
    1.4273   -1.6522    0.0000 O   0  0
    1.4285   -0.8267    0.0000 C   0  0
    0.7145   -0.4125    0.0000 C   0  0
    0.7145    0.4125    0.0000 C   0  0
    1.2861    0.7425    0.0000 F   0  0
    0.0000    0.8250    0.0000 C   0  0
   -0.7145    0.4125    0.0000 C   0  0
   -1.2861    0.7425    0.0000 Br  0  0
   -0.7145   -0.4125    0.0000 C   0  0
    0.0000   -0.8250    0.0000 C   0  0
    0.0000   -1.4850    0.0000 F   0  0
    4.1968   -5.0885    0.0000 H   0  0
    3.0384   -4.2500    0.0000 H   0  0
    0.4045   -3.5280    0.0000 H   0  0
    0.7075   -2.6249    0.0000 H   0  0
  1  2  1  0
  1 35  1  0
  1 36  1  0
  2  3  2  0
  2  4  1  0
  4  5  2  0
  5  6  1  0
  5 19  1  0
  6  7  1  0
  6 34  1  0
  7  8  2  0
  7  9  1  0
  9 10  1  0
  9 33  1  0
 10 11  1  0
 11 12  1  0
 12 13  1  0
 13 14  1  0
 14 15  1  0
 15 16  1  0
 16 17  1  0
 17 18  1  0
 18 14  1  0
 19 20  1  0
 20 21  2  0
 21  4  1  0
 21 22  1  0
 22 23  1  0
 23 24  1  0
 24 25  2  0
 25 26  1  0
 25 27  1  0
 27 28  2  0
 28 29  1  0
 28 30  1  0
 30 31  2  0
 31 24  1  0
 31 32  1  0
M  END
> <CMPD_CHEMBLID>
CHEMBL253969

> <STANDARD_TYPE>
Ki

> <RELATION>
=

> <STANDARD_VALUE>
79.43

> <STANDARD_UNITS>
nM

> <Molecular_Weight>
532.40207

$$$$

  SciTegic11272012012D

 22 26  0  0  0  0            999 V2000
    1.7026    1.2952    0.0000 S   0  0
    1.4987    0.6674    0.0000 C   0  0
    1.9836    0.0000    0.0000 N   0  0
    1.4987   -0.6674    0.0000 N   0  0
    0.7145   -0.4125    0.0000 C   0  0
    0.7145    0.4125    0.0000 N   0  0
    0.0000    0.8250    0.0000 C   0  0
   -0.1713    1.6316    0.0000 N   0  0
   -0.9918    1.7179    0.0000 N   0  0
   -1.3273    0.9642    0.0000 C   0  0
   -1.9729    0.8268    0.0000 S   0  0
   -0.7145    0.4125    0.0000 N   0  0
   -0.7145   -0.4125    0.0000 C   0  0
   -1.3273   -0.9642    0.0000 S   0  0
   -0.9918   -1.7179    0.0000 C   0  0
   -1.1634   -2.5237    0.0000 C   0  0
   -0.4490   -2.9362    0.0000 C   0  0
    0.1642   -2.3841    0.0000 C   0  0
   -0.1713   -1.6316    0.0000 C   0  0
    0.0000   -0.8250    0.0000 C   0  0
   -1.2668    2.1942    0.0000 H   0  0
    2.5336    0.0000    0.0000 H   0  0
  1  2  2  0
  2  3  1  0
  3  4  1  0
  3 22  1  0
  4  5  2  0
  5  6  1  0
  6  2  1  0
  6  7  1  0
  7  8  2  0
  8  9  1  0
  9 10  1  0
  9 21  1  0
 10 11  2  0
 10 12  1  0
 12  7  1  0
 12 13  1  0
 13 14  1  0
 14 15  1  0
 15 16  1  0
 16 17  1  0
 17 18  1  0
 18 19  1  0
 19 15  2  0
 19 20  1  0
 20  5  1  0
 20 13  2  0
M  END
> <CMPD_CHEMBLID>
CHEMBL1969537

> <STANDARD_TYPE>
Ki

> <RELATION>
=

> <STANDARD_VALUE>
79.43

> <STANDARD_UNITS>
nM

> <Molecular_Weight>
320.41642

$$$$

  SciTegic11272012012D

 40 43  0  0  0  0            999 V2000
   -5.4917   -2.3744    0.0000 C   0  0
   -5.3379   -3.0162    0.0000 C   0  0
   -5.9365   -3.5839    0.0000 C   0  0
   -5.7442   -4.3862    0.0000 C   0  0
   -4.9533   -4.6207    0.0000 C   0  0
   -4.3546   -4.0531    0.0000 C   0  0
   -3.5627   -4.2862    0.0000 N   0  0
   -2.9646   -3.7174    0.0000 C   0  0
   -3.1195   -3.0758    0.0000 O   0  0
   -2.1727   -3.9505    0.0000 N   0  0
   -1.5745   -3.3816    0.0000 C   0  0
   -0.7828   -3.6135    0.0000 C   0  0
   -0.1861   -3.0437    0.0000 C   0  0
   -0.3810   -2.2449    0.0000 C   0  0
   -1.1730   -2.0103    0.0000 C   0  0
   -1.7696   -2.5800    0.0000 C   0  0
    0.1713   -1.6316    0.0000 C   0  0
    0.9918   -1.7178    0.0000 C   0  0
    1.3273   -0.9641    0.0000 S   0  0
    0.7144   -0.4125    0.0000 C   0  0
    0.7144    0.4125    0.0000 C   0  0
    0.0000    0.8250    0.0000 C   0  0
   -0.7144    0.4125    0.0000 N   0  0
   -0.7144   -0.4125    0.0000 C   0  0
   -1.4302   -0.8238    0.0000 N   0  0
    0.0000   -0.8250    0.0000 C   0  0
    1.4293    0.8252    0.0000 C   0  0
    2.1442    1.2379    0.0000 C   0  0
    2.8590    1.6507    0.0000 C   0  0
    3.5741    1.2384    0.0000 N   0  0
    4.2890    1.6511    0.0000 S   0  0
    4.8608    1.3215    0.0000 O   0  0
    4.2888    2.3111    0.0000 O   0  0
    4.8604    1.9814    0.0000 C   0  0
   -4.5469   -3.2508    0.0000 C   0  0
    3.5743    0.6884    0.0000 H   0  0
   -1.9061   -0.5481    0.0000 H   0  0
   -1.4311   -1.3738    0.0000 H   0  0
   -2.0436   -4.4851    0.0000 H   0  0
   -3.4336   -4.8208    0.0000 H   0  0
  1  2  1  0
  2  3  2  0
  3  4  1  0
  4  5  2  0
  5  6  1  0
  6  7  1  0
  6 35  2  0
  7  8  1  0
  7 40  1  0
  8  9  2  0
  8 10  1  0
 10 11  1  0
 10 39  1  0
 11 12  2  0
 12 13  1  0
 13 14  2  0
 14 15  1  0
 14 17  1  0
 15 16  2  0
 16 11  1  0
 17 18  2  0
 18 19  1  0
 19 20  1  0
 20 21  2  0
 21 22  1  0
 21 27  1  0
 22 23  2  0
 23 24  1  0
 24 25  1  0
 24 26  2  0
 25 37  1  0
 25 38  1  0
 26 17  1  0
 26 20  1  0
 27 28  3  0
 28 29  1  0
 29 30  1  0
 30 31  1  0
 30 36  1  0
 31 32  2  0
 31 33  2  0
 31 34  1  0
 35  2  1  0
M  END
> <CMPD_CHEMBLID>
CHEMBL1994321

> <STANDARD_TYPE>
Ki

> <RELATION>
=

> <STANDARD_VALUE>
79.43

> <STANDARD_UNITS>
nM

> <Molecular_Weight>
505.61182

$$$$

  SciTegic11272012012D

 23 25  0  0  0  0            999 V2000
   -0.1768   -2.8718    0.0000 C   0  0
   -0.3802   -2.2439    0.0000 C   0  0
   -1.0257   -2.1063    0.0000 C   0  0
   -0.8222   -2.7341    0.0000 C   0  0
    0.1713   -1.6316    0.0000 N   0  0
    0.9918   -1.7179    0.0000 N   0  0
    1.3273   -0.9642    0.0000 C   0  0
    2.1348   -0.7925    0.0000 C   0  0
    2.7291   -1.3607    0.0000 C   0  0
    3.5209   -1.1288    0.0000 C   0  0
    3.7159   -0.3272    0.0000 C   0  0
    4.3494   -0.1417    0.0000 Cl  0  0
    3.1193    0.2426    0.0000 C   0  0
    2.3275    0.0107    0.0000 C   0  0
    0.7145   -0.4125    0.0000 C   0  0
    0.7145    0.4125    0.0000 C   0  0
    1.4285    0.8267    0.0000 N   0  0
    0.0000    0.8250    0.0000 N   0  0
   -0.7145    0.4125    0.0000 C   0  0
   -0.7145   -0.4125    0.0000 N   0  0
    0.0000   -0.8250    0.0000 C   0  0
    1.4277    1.3767    0.0000 H   0  0
    1.9053    0.5525    0.0000 H   0  0
  1  2  1  0
  2  3  1  0
  2  4  1  0
  2  5  1  0
  5  6  1  0
  6  7  2  0
  7  8  1  0
  7 15  1  0
  8  9  2  0
  9 10  1  0
 10 11  2  0
 11 12  1  0
 11 13  1  0
 13 14  2  0
 14  8  1  0
 15 16  2  0
 16 17  1  0
 16 18  1  0
 17 22  1  0
 17 23  1  0
 18 19  2  0
 19 20  1  0
 20 21  2  0
 21  5  1  0
 21 15  1  0
M  END
> <CMPD_CHEMBLID>
CHEMBL406845

> <STANDARD_TYPE>
Ki

> <RELATION>
=

> <STANDARD_VALUE>
79.43

> <STANDARD_UNITS>
nM

> <Molecular_Weight>
301.77404

$$$$

  SciTegic11272012012D

 36 39  0  0  0  0            999 V2000
   -0.3789   -2.2450    0.0000 N   0  0
    0.1713   -1.6316    0.0000 C   0  0
    0.9918   -1.7178    0.0000 N   0  0
    1.3273   -0.9641    0.0000 N   0  0
    0.7144   -0.4125    0.0000 C   0  0
    0.7144    0.4125    0.0000 N   0  0
    0.0000    0.8250    0.0000 C   0  0
   -0.7144    0.4125    0.0000 C   0  0
   -0.7144   -0.4125    0.0000 C   0  0
   -1.4293   -0.8252    0.0000 C   0  0
   -2.1445   -0.4139    0.0000 C   0  0
   -2.8583   -0.8275    0.0000 C   0  0
   -2.8570   -1.6525    0.0000 C   0  0
   -3.5703   -2.0678    0.0000 N   0  0
   -3.5679   -2.8933    0.0000 C   0  0
   -2.9952   -3.2214    0.0000 O   0  0
   -4.2812   -3.3086    0.0000 N   0  0
   -4.2787   -4.1341    0.0000 C   0  0
   -3.5621   -4.5430    0.0000 C   0  0
   -3.5580   -5.3680    0.0000 C   0  0
   -4.2704   -5.7841    0.0000 C   0  0
   -4.9869   -5.3752    0.0000 C   0  0
   -4.9911   -4.5503    0.0000 C   0  0
   -5.5644   -4.2231    0.0000 F   0  0
   -2.8411   -5.7771    0.0000 C   0  0
   -2.2709   -5.4446    0.0000 F   0  0
   -2.8379   -6.4371    0.0000 F   0  0
   -2.2680   -6.1045    0.0000 F   0  0
   -2.1419   -2.0639    0.0000 C   0  0
   -1.4280   -1.6502    0.0000 C   0  0
    0.0000   -0.8250    0.0000 C   0  0
   -4.7584   -3.0352    0.0000 H   0  0
   -4.0476   -1.7944    0.0000 H   0  0
    1.8653   -0.8497    0.0000 H   0  0
   -0.2083   -2.7679    0.0000 H   0  0
   -0.9171   -2.1315    0.0000 H   0  0
  1  2  1  0
  1 35  1  0
  1 36  1  0
  2  3  2  0
  3  4  1  0
  4  5  1  0
  4 34  1  0
  5  6  2  0
  6  7  1  0
  7  8  2  0
  8  9  1  0
  9 10  1  0
  9 31  2  0
 10 11  2  0
 11 12  1  0
 12 13  2  0
 13 14  1  0
 13 29  1  0
 14 15  1  0
 14 33  1  0
 15 16  2  0
 15 17  1  0
 17 18  1  0
 17 32  1  0
 18 19  2  0
 19 20  1  0
 20 21  2  0
 20 25  1  0
 21 22  1  0
 22 23  2  0
 23 18  1  0
 23 24  1  0
 25 26  1  0
 25 27  1  0
 25 28  1  0
 29 30  2  0
 30 10  1  0
 31  2  1  0
 31  5  1  0
M  END
> <CMPD_CHEMBLID>
CHEMBL403402

> <STANDARD_TYPE>
Ki

> <RELATION>
=

> <STANDARD_VALUE>
79.43

> <STANDARD_UNITS>
nM

> <Molecular_Weight>
430.35837

$$$$

  SciTegic11272012012D

 24 26  0  0  0  0            999 V2000
    1.9982   -1.9833    0.0000 C   0  0
    1.4273   -1.6522    0.0000 C   0  0
    0.8552   -1.9812    0.0000 C   0  0
    1.4285   -0.8267    0.0000 N   0  0
    0.7145   -0.4125    0.0000 C   0  0
    0.7145    0.4125    0.0000 N   0  0
    0.0000    0.8250    0.0000 C   0  0
   -0.7145    0.4125    0.0000 C   0  0
   -0.7145   -0.4125    0.0000 C   0  0
   -1.4285   -0.8267    0.0000 N   0  0
   -1.4273   -1.6522    0.0000 C   0  0
   -2.0931   -2.1274    0.0000 N   0  0
   -1.8354   -2.9111    0.0000 C   0  0
   -1.0104   -2.9083    0.0000 C   0  0
   -0.7582   -2.1228    0.0000 S   0  0
   -0.5229   -3.5744    0.0000 C   0  0
   -0.7977   -4.3494    0.0000 C   0  0
   -0.2617   -4.9766    0.0000 C   0  0
    0.5494   -4.8260    0.0000 C   0  0
    0.8246   -4.0483    0.0000 C   0  0
    0.2886   -3.4211    0.0000 C   0  0
    0.0000   -0.8250    0.0000 N   0  0
   -1.9053   -0.5525    0.0000 H   0  0
    1.9053   -0.5525    0.0000 H   0  0
  1  2  1  0
  2  3  1  0
  2  4  1  0
  4  5  1  0
  4 24  1  0
  5  6  2  0
  6  7  1  0
  7  8  2  0
  8  9  1  0
  9 10  1  0
  9 22  2  0
 10 11  1  0
 10 23  1  0
 11 12  2  0
 12 13  1  0
 13 14  2  0
 14 15  1  0
 14 16  1  0
 15 11  1  0
 16 17  2  0
 17 18  1  0
 18 19  2  0
 19 20  1  0
 20 21  2  0
 21 16  1  0
 22  5  1  0
M  END
> <CMPD_CHEMBLID>
CHEMBL2002432

> <STANDARD_TYPE>
Ki

> <RELATION>
=

> <STANDARD_VALUE>
79.43

> <STANDARD_UNITS>
nM

> <Molecular_Weight>
311.40468

$$$$

  SciTegic11272012012D

 31 34  0  0  0  0            999 V2000
    2.1404   -2.7264    0.0000 C   0  0
    2.1413   -2.0664    0.0000 C   0  0
    1.4273   -1.6522    0.0000 O   0  0
    1.4285   -0.8267    0.0000 C   0  0
    2.0006   -0.4977    0.0000 O   0  0
    0.7145   -0.4125    0.0000 C   0  0
    0.7145    0.4125    0.0000 C   0  0
    1.3273    0.9642    0.0000 S   0  0
    0.9918    1.7178    0.0000 C   0  0
    1.4053    2.4306    0.0000 C   0  0
    2.2307    2.4294    0.0000 C   0  0
    2.7060    3.0952    0.0000 O   0  0
    3.4897    2.8375    0.0000 C   0  0
    3.4868    2.0125    0.0000 C   0  0
    2.7013    1.7603    0.0000 C   0  0
    0.1713    1.6316    0.0000 C   0  0
   -0.2704    2.1220    0.0000 O   0  0
    0.0000    0.8250    0.0000 N   0  0
   -0.7145    0.4125    0.0000 C   0  0
   -0.7145   -0.4125    0.0000 C   0  0
   -1.4293   -0.8252    0.0000 C   0  0
   -2.0009   -1.1552    0.0000 N   0  0
    0.0000   -0.8250    0.0000 C   0  0
    0.0000   -1.6504    0.0000 C   0  0
   -0.6667   -2.1244    0.0000 O   0  0
   -0.4105   -2.9086    0.0000 C   0  0
    0.4145   -2.9073    0.0000 C   0  0
    0.6682   -2.1223    0.0000 C   0  0
   -1.4302    0.8237    0.0000 N   0  0
   -1.9061    0.5481    0.0000 H   0  0
   -1.4312    1.3737    0.0000 H   0  0
  1  2  1  0
  2  3  1  0
  3  4  1  0
  4  5  2  0
  4  6  1  0
  6  7  2  0
  7  8  1  0
  8  9  1  0
  9 10  2  0
  9 16  1  0
 10 11  1  0
 11 12  1  0
 12 13  1  0
 13 14  2  0
 14 15  1  0
 15 11  2  0
 16 17  2  0
 16 18  1  0
 18  7  1  0
 18 19  1  0
 19 20  2  0
 19 29  1  0
 20 21  1  0
 20 23  1  0
 21 22  3  0
 23  6  1  0
 23 24  1  0
 24 25  1  0
 25 26  1  0
 26 27  2  0
 27 28  1  0
 28 24  2  0
 29 30  1  0
 29 31  1  0
M  END
> <CMPD_CHEMBLID>
CHEMBL1999112

> <STANDARD_TYPE>
Ki

> <RELATION>
=

> <STANDARD_VALUE>
79.43

> <STANDARD_UNITS>
nM

> <Molecular_Weight>
409.4152

$$$$

  SciTegic11272012012D

 30 33  0  0  0  0            999 V2000
    1.4276   -1.4867    0.0000 C   0  0
    1.4285   -0.8267    0.0000 S   0  0
    0.7144   -0.4125    0.0000 C   0  0
    0.7144    0.4125    0.0000 N   0  0
    0.0000    0.8250    0.0000 C   0  0
    0.0017    1.6504    0.0000 N   0  0
    0.7171    2.0622    0.0000 C   0  0
    0.7188    2.8876    0.0000 C   0  0
    0.0043    3.3002    0.0000 C   0  0
    0.0044    4.1252    0.0000 C   0  0
    0.7188    4.5377    0.0000 C   0  0
    1.4333    4.1252    0.0000 C   0  0
    1.4333    3.3002    0.0000 C   0  0
    2.0049    2.9702    0.0000 F   0  0
   -0.7144    0.4125    0.0000 C   0  0
   -1.4986    0.6674    0.0000 C   0  0
   -1.9836    0.0000    0.0000 N   0  0
   -1.4986   -0.6674    0.0000 N   0  0
   -1.7547   -1.4507    0.0000 C   0  0
   -2.5623   -1.6213    0.0000 C   0  0
   -3.0032   -1.1301    0.0000 Cl  0  0
   -2.8189   -2.4059    0.0000 C   0  0
   -3.6259   -2.5776    0.0000 C   0  0
   -3.8807   -3.3623    0.0000 C   0  0
   -3.3285   -3.9752    0.0000 C   0  0
   -2.5216   -3.8036    0.0000 C   0  0
   -2.2668   -3.0189    0.0000 C   0  0
   -0.7144   -0.4125    0.0000 C   0  0
    0.0000   -0.8250    0.0000 N   0  0
   -0.4742    1.9263    0.0000 H   0  0
  1  2  1  0
  2  3  1  0
  3  4  2  0
  4  5  1  0
  5  6  1  0
  5 15  2  0
  6  7  1  0
  6 30  1  0
  7  8  1  0
  8  9  2  0
  9 10  1  0
 10 11  2  0
 11 12  1  0
 12 13  2  0
 13  8  1  0
 13 14  1  0
 15 16  1  0
 16 17  2  0
 17 18  1  0
 18 19  1  0
 18 28  1  0
 19 20  1  0
 20 21  1  0
 20 22  1  0
 22 23  2  0
 23 24  1  0
 24 25  2  0
 25 26  1  0
 26 27  2  0
 27 22  1  0
 28 15  1  0
 28 29  2  0
 29  3  1  0
M  END
> <CMPD_CHEMBLID>
CHEMBL391724

> <STANDARD_TYPE>
Ki

> <RELATION>
=

> <STANDARD_VALUE>
80

> <STANDARD_UNITS>
nM

> <Molecular_Weight>
427.92546

$$$$

  SciTegic11272012012D

 29 32  0  0  0  0            999 V2000
    0.5229   -3.1659    0.0000 Cl  0  0
   -0.1229   -3.0297    0.0000 C   0  0
   -0.3789   -2.2450    0.0000 C   0  0
    0.1713   -1.6316    0.0000 N   0  0
    0.9918   -1.7178    0.0000 N   0  0
    1.3273   -0.9641    0.0000 C   0  0
    0.7144   -0.4125    0.0000 C   0  0
    0.7144    0.4125    0.0000 C   0  0
    1.4285    0.8267    0.0000 N   0  0
    1.4273    1.6521    0.0000 C   0  0
    2.1413    2.0663    0.0000 C   0  0
    2.1413    2.8914    0.0000 C   0  0
    2.8558    3.3039    0.0000 C   0  0
    3.5703    2.8914    0.0000 C   0  0
    3.5703    2.0664    0.0000 C   0  0
    4.1419    1.7365    0.0000 Cl  0  0
    2.8559    1.6539    0.0000 C   0  0
    0.0000    0.8250    0.0000 N   0  0
   -0.7144    0.4125    0.0000 C   0  0
   -0.7144   -0.4125    0.0000 N   0  0
    0.0000   -0.8250    0.0000 C   0  0
   -0.6741   -3.6442    0.0000 C   0  0
   -0.4193   -4.4289    0.0000 C   0  0
   -0.9714   -5.0419    0.0000 C   0  0
   -1.7784   -4.8702    0.0000 C   0  0
   -2.2201   -5.3606    0.0000 Cl  0  0
   -2.0332   -4.0856    0.0000 C   0  0
   -1.4810   -3.4726    0.0000 C   0  0
    1.9053    0.5525    0.0000 H   0  0
  1  2  1  0
  2  3  1  0
  2 22  1  0
  3  4  1  0
  4  5  1  0
  5  6  2  0
  6  7  1  0
  7  8  2  0
  8  9  1  0
  8 18  1  0
  9 10  1  0
  9 29  1  0
 10 11  1  0
 11 12  2  0
 12 13  1  0
 13 14  2  0
 14 15  1  0
 15 16  1  0
 15 17  2  0
 17 11  1  0
 18 19  2  0
 19 20  1  0
 20 21  2  0
 21  4  1  0
 21  7  1  0
 22 23  2  0
 23 24  1  0
 24 25  2  0
 25 26  1  0
 25 27  1  0
 27 28  2  0
 28 22  1  0
M  END
> <CMPD_CHEMBLID>
CHEMBL408966

> <STANDARD_TYPE>
Ki

> <RELATION>
=

> <STANDARD_VALUE>
80

> <STANDARD_UNITS>
nM

> <Molecular_Weight>
432.73354

$$$$

  SciTegic11272012012D

 37 42  0  0  0  0            999 V2000
    3.4304   -0.4984    0.0000 F   0  0
    2.8583   -0.8275    0.0000 C   0  0
    2.1445   -0.4139    0.0000 C   0  0
    1.4293   -0.8252    0.0000 C   0  0
    1.4281   -1.6502    0.0000 C   0  0
    2.1419   -2.0639    0.0000 C   0  0
    2.1408   -2.7239    0.0000 F   0  0
    2.8570   -1.6525    0.0000 C   0  0
    3.5720   -2.0649    0.0000 C   0  0
    4.2870   -1.6523    0.0000 N   0  0
    5.0023   -2.0634    0.0000 C   0  0
    5.7160   -1.6496    0.0000 C   0  0
    5.7144   -0.8246    0.0000 O   0  0
    4.9992   -0.4134    0.0000 C   0  0
    4.2855   -0.8273    0.0000 C   0  0
    0.7144   -0.4125    0.0000 C   0  0
    0.7144    0.4125    0.0000 C   0  0
    0.0000    0.8250    0.0000 C   0  0
   -0.7144    0.4125    0.0000 C   0  0
   -0.7144   -0.4125    0.0000 C   0  0
   -1.4290   -0.8250    0.0000 N   0  0
   -1.4290   -1.6500    0.0000 C   0  0
   -0.7144   -2.0625    0.0000 C   0  0
    0.0000   -1.6500    0.0000 N   0  0
    0.0000   -0.8250    0.0000 C   0  0
   -0.7144   -2.8879    0.0000 C   0  0
   -1.3812   -3.3619    0.0000 C   0  0
   -1.1250   -4.1461    0.0000 N   0  0
   -0.3000   -4.1448    0.0000 N   0  0
   -0.0463   -3.3598    0.0000 C   0  0
    0.1863   -4.8118    0.0000 C   0  0
   -0.0899   -5.5863    0.0000 C   0  0
    0.4448   -6.2145    0.0000 C   0  0
    1.2563   -6.0655    0.0000 N   0  0
    1.5329   -5.2882    0.0000 C   0  0
    0.9981   -4.6600    0.0000 C   0  0
    1.6128   -6.4843    0.0000 H   0  0
  1  2  1  0
  2  3  2  0
  3  4  1  0
  4  5  2  0
  4 16  1  0
  5  6  1  0
  6  7  1  0
  6  8  2  0
  8  2  1  0
  8  9  1  0
  9 10  1  0
 10 11  1  0
 11 12  1  0
 12 13  1  0
 13 14  1  0
 14 15  1  0
 15 10  1  0
 16 17  2  0
 17 18  1  0
 18 19  2  0
 19 20  1  0
 20 21  2  0
 21 22  1  0
 22 23  2  0
 23 24  1  0
 23 26  1  0
 24 25  2  0
 25 16  1  0
 25 20  1  0
 26 27  1  0
 27 28  2  0
 28 29  1  0
 29 30  1  0
 29 31  1  0
 30 26  2  0
 31 32  1  0
 32 33  1  0
 33 34  1  0
 34 35  1  0
 34 37  1  0
 35 36  1  0
 36 31  1  0
M  END
> <CMPD_CHEMBLID>
CHEMBL1092926

> <STANDARD_TYPE>
IC50

> <RELATION>
=

> <STANDARD_VALUE>
80

> <STANDARD_UNITS>
nM

> <Molecular_Weight>
490.54763

$$$$

  SciTegic11272012012D

 35 37  0  0  0  0            999 V2000
    1.9982   -1.9833    0.0000 C   0  0
    1.4273   -1.6521    0.0000 N   0  0
    1.4285   -0.8267    0.0000 C   0  0
    2.0006   -0.4977    0.0000 O   0  0
    0.7144   -0.4125    0.0000 C   0  0
    0.7144    0.4125    0.0000 C   0  0
    0.0000    0.8250    0.0000 C   0  0
   -0.0017    1.6504    0.0000 O   0  0
   -0.7171    2.0622    0.0000 C   0  0
   -0.7201    2.8872    0.0000 C   0  0
   -1.4359    3.2972    0.0000 C   0  0
   -2.1490    2.8822    0.0000 C   0  0
   -2.8661    3.2910    0.0000 N   0  0
   -3.5789    2.8748    0.0000 C   0  0
   -3.5755    2.2148    0.0000 O   0  0
   -4.2961    3.2835    0.0000 N   0  0
   -5.0089    2.8674    0.0000 C   0  0
   -5.7262    3.2749    0.0000 C   0  0
   -6.4379    2.8574    0.0000 C   0  0
   -6.4322    2.0324    0.0000 C   0  0
   -7.0014    1.6985    0.0000 Cl  0  0
   -5.7149    1.6249    0.0000 C   0  0
   -5.0033    2.0423    0.0000 C   0  0
   -5.7091    0.7995    0.0000 C   0  0
   -6.2782    0.4651    0.0000 F   0  0
   -5.1352    0.4736    0.0000 F   0  0
   -5.7042    0.1395    0.0000 F   0  0
   -2.1461    2.0572    0.0000 C   0  0
   -1.4303    1.6472    0.0000 C   0  0
   -0.7144    0.4125    0.0000 C   0  0
   -0.7144   -0.4125    0.0000 C   0  0
    0.0000   -0.8250    0.0000 N   0  0
   -4.2989    3.8335    0.0000 H   0  0
   -2.8690    3.8410    0.0000 H   0  0
    0.9505   -1.9263    0.0000 H   0  0
  1  2  1  0
  2  3  1  0
  2 35  1  0
  3  4  2  0
  3  5  1  0
  5  6  2  0
  6  7  1  0
  7  8  1  0
  7 30  2  0
  8  9  1  0
  9 10  2  0
 10 11  1  0
 11 12  2  0
 12 13  1  0
 12 28  1  0
 13 14  1  0
 13 34  1  0
 14 15  2  0
 14 16  1  0
 16 17  1  0
 16 33  1  0
 17 18  2  0
 18 19  1  0
 19 20  2  0
 20 21  1  0
 20 22  1  0
 22 23  2  0
 22 24  1  0
 23 17  1  0
 24 25  1  0
 24 26  1  0
 24 27  1  0
 28 29  2  0
 29  9  1  0
 30 31  1  0
 31 32  2  0
 32  5  1  0
M  END
> <CMPD_CHEMBLID>
CHEMBL1336

> <STANDARD_TYPE>
IC50

> <RELATION>
=

> <STANDARD_VALUE>
80

> <STANDARD_UNITS>
nM

> <Molecular_Weight>
464.82495

$$$$

  SciTegic11272012012D

 29 32  0  0  0  0            999 V2000
    4.8608   -1.9762    0.0000 F   0  0
    4.2891   -1.6462    0.0000 C   0  0
    4.2891   -0.8213    0.0000 C   0  0
    3.5746   -0.4088    0.0000 C   0  0
    2.8601   -0.8213    0.0000 C   0  0
    2.1444   -0.4100    0.0000 C   0  0
    1.4302   -0.8237    0.0000 N   0  0
    0.7144   -0.4125    0.0000 C   0  0
    0.7144    0.4125    0.0000 N   0  0
    0.0000    0.8250    0.0000 C   0  0
   -0.7144    0.4125    0.0000 N   0  0
   -0.7144   -0.4125    0.0000 C   0  0
    0.0000   -0.8250    0.0000 C   0  0
   -0.1713   -1.6316    0.0000 C   0  0
   -0.9918   -1.7178    0.0000 N   0  0
   -1.3273   -0.9641    0.0000 N   0  0
   -2.1337   -0.7943    0.0000 C   0  0
   -2.6852   -1.4084    0.0000 C   0  0
   -2.4803   -2.0358    0.0000 Cl  0  0
   -3.4930   -1.2383    0.0000 C   0  0
   -4.0452   -1.8513    0.0000 C   0  0
   -4.8521   -1.6797    0.0000 C   0  0
   -5.1069   -0.8950    0.0000 C   0  0
   -5.7525   -0.7577    0.0000 Cl  0  0
   -4.5548   -0.2820    0.0000 C   0  0
   -3.7478   -0.4536    0.0000 C   0  0
    2.8602   -1.6463    0.0000 C   0  0
    3.5747   -2.0587    0.0000 C   0  0
    1.4311   -1.3737    0.0000 H   0  0
  1  2  1  0
  2  3  2  0
  3  4  1  0
  4  5  2  0
  5  6  1  0
  5 27  1  0
  6  7  1  0
  7  8  1  0
  7 29  1  0
  8  9  2  0
  9 10  1  0
 10 11  2  0
 11 12  1  0
 12 13  2  0
 13  8  1  0
 13 14  1  0
 14 15  2  0
 15 16  1  0
 16 12  1  0
 16 17  1  0
 17 18  1  0
 18 19  1  0
 18 20  1  0
 20 21  2  0
 21 22  1  0
 22 23  2  0
 23 24  1  0
 23 25  1  0
 25 26  2  0
 26 20  1  0
 27 28  2  0
 28  2  1  0
M  END
> <CMPD_CHEMBLID>
CHEMBL406658

> <STANDARD_TYPE>
Ki

> <RELATION>
=

> <STANDARD_VALUE>
80

> <STANDARD_UNITS>
nM

> <Molecular_Weight>
416.27894

$$$$

  SciTegic11272012012D

 30 33  0  0  0  0            999 V2000
    1.2861   -0.7425    0.0000 C   0  0
    0.7144   -0.4125    0.0000 N   0  0
    0.7144    0.4125    0.0000 C   0  0
    0.0000    0.8250    0.0000 C   0  0
   -0.7144    0.4125    0.0000 N   0  0
   -0.7144   -0.4125    0.0000 C   0  0
    0.0000   -0.8250    0.0000 C   0  0
   -1.4293    0.8252    0.0000 C   0  0
   -1.4307    1.6502    0.0000 C   0  0
   -2.1458    2.0616    0.0000 C   0  0
   -2.1488    2.8871    0.0000 N   0  0
   -2.8649    3.2976    0.0000 C   0  0
   -2.9449    4.1117    0.0000 C   0  0
   -3.7527    4.2791    0.0000 C   0  0
   -4.0242    4.8807    0.0000 C   0  0
   -4.1616    3.5626    0.0000 N   0  0
   -3.6065    2.9523    0.0000 N   0  0
   -2.8596    1.6480    0.0000 N   0  0
   -2.8583    0.8230    0.0000 C   0  0
   -3.5716    0.4076    0.0000 C   0  0
   -3.5692   -0.4178    0.0000 C   0  0
   -4.2825   -0.8331    0.0000 C   0  0
   -4.2812   -1.6582    0.0000 C   0  0
   -4.9950   -2.0718    0.0000 C   0  0
   -5.7101   -1.6605    0.0000 C   0  0
   -5.7115   -0.8355    0.0000 C   0  0
   -4.9977   -0.4218    0.0000 C   0  0
   -2.1432    0.4116    0.0000 N   0  0
   -4.7083    3.5023    0.0000 H   0  0
   -1.6734    3.1637    0.0000 H   0  0
  1  2  1  0
  2  3  1  0
  3  4  1  0
  4  5  1  0
  5  6  1  0
  5  8  1  0
  6  7  1  0
  7  2  1  0
  8  9  2  0
  9 10  1  0
 10 11  1  0
 10 18  2  0
 11 12  1  0
 11 30  1  0
 12 13  1  0
 13 14  2  0
 14 15  1  0
 14 16  1  0
 16 17  1  0
 16 29  1  0
 17 12  2  0
 18 19  1  0
 19 20  1  0
 19 28  2  0
 20 21  2  0
 21 22  1  0
 22 23  2  0
 23 24  1  0
 24 25  2  0
 25 26  1  0
 26 27  2  0
 27 22  1  0
 28  8  1  0
M  END
> <CMPD_CHEMBLID>
CHEMBL482968

> <STANDARD_TYPE>
IC50

> <RELATION>
=

> <STANDARD_VALUE>
81

> <STANDARD_UNITS>
nM

> <Molecular_Weight>
375.4701

$$$$

  SciTegic11272012012D

 28 31  0  0  0  0            999 V2000
    1.4302   -0.8237    0.0000 N   0  0
    0.7145   -0.4125    0.0000 C   0  0
    0.7145    0.4125    0.0000 N   0  0
    0.0000    0.8250    0.0000 C   0  0
   -0.7145    0.4125    0.0000 N   0  0
   -0.7145   -0.4125    0.0000 C   0  0
    0.0000   -0.8250    0.0000 C   0  0
   -0.1713   -1.6316    0.0000 C   0  0
   -0.9918   -1.7178    0.0000 N   0  0
   -1.3273   -0.9642    0.0000 N   0  0
   -2.1337   -0.7943    0.0000 C   0  0
   -2.6853   -1.4085    0.0000 C   0  0
   -3.4981   -1.3160    0.0000 C   0  0
   -3.8311   -2.0708    0.0000 C   0  0
   -3.2162   -2.6208    0.0000 N   0  0
   -2.5031   -2.2059    0.0000 C   0  0
    0.3811   -2.2450    0.0000 C   0  0
    1.1959   -2.1345    0.0000 C   0  0
    1.7002   -2.7874    0.0000 C   0  0
    1.3870   -3.5506    0.0000 C   0  0
    1.7905   -4.0729    0.0000 Cl  0  0
    0.5694   -3.6610    0.0000 C   0  0
    0.2544   -4.4240    0.0000 O   0  0
    0.0651   -3.0081    0.0000 C   0  0
   -0.2907   -4.4968    0.0000 H   0  0
   -3.2719   -3.1680    0.0000 H   0  0
    1.9062   -0.5481    0.0000 H   0  0
    1.4312   -1.3738    0.0000 H   0  0
  1  2  1  0
  1 27  1  0
  1 28  1  0
  2  3  2  0
  3  4  1  0
  4  5  2  0
  5  6  1  0
  6  7  2  0
  7  2  1  0
  7  8  1  0
  8  9  2  0
  8 17  1  0
  9 10  1  0
 10  6  1  0
 10 11  1  0
 11 12  1  0
 12 13  1  0
 13 14  1  0
 14 15  1  0
 15 16  1  0
 15 26  1  0
 16 12  1  0
 17 18  2  0
 18 19  1  0
 19 20  2  0
 20 21  1  0
 20 22  1  0
 22 23  1  0
 22 24  2  0
 23 25  1  0
 24 17  1  0
M  END
> <CMPD_CHEMBLID>
CHEMBL1241770

> <STANDARD_TYPE>
IC50

> <RELATION>
=

> <STANDARD_VALUE>
82

> <STANDARD_UNITS>
nM

> <Molecular_Weight>
344.79878

$$$$

  SciTegic11272012012D

 27 29  0  0  0  0            999 V2000
    2.0006   -0.4977    0.0000 O   0  5
    1.4285   -0.8267    0.0000 N   0  3
    1.4276   -1.4867    0.0000 O   0  0
    0.7145   -0.4125    0.0000 C   0  0
    0.7145    0.4125    0.0000 C   0  0
    0.0000    0.8250    0.0000 C   0  0
   -0.7145    0.4125    0.0000 C   0  0
   -1.4302    0.8237    0.0000 C   0  0
   -2.1445    0.4100    0.0000 S   0  0
   -2.8602    0.8213    0.0000 C   0  0
   -3.6035    0.4797    0.0000 N   0  0
   -4.1555    1.0928    0.0000 N   0  0
   -3.7430    1.8073    0.0000 C   0  0
   -4.0766    2.5608    0.0000 N   0  0
   -3.5905    3.2279    0.0000 C   0  0
   -2.9342    3.1577    0.0000 O   0  0
   -3.9247    3.9827    0.0000 C   0  0
   -4.7451    4.0690    0.0000 C   0  0
   -5.0807    4.8226    0.0000 C   0  0
   -4.5958    5.4901    0.0000 C   0  0
   -3.7753    5.4038    0.0000 C   0  0
   -3.4397    4.6501    0.0000 C   0  0
   -2.7833    4.5811    0.0000 Cl  0  0
   -2.9360    1.6358    0.0000 S   0  0
   -0.7145   -0.4125    0.0000 C   0  0
    0.0000   -0.8250    0.0000 C   0  0
   -4.6235    2.6192    0.0000 H   0  0
  1  2  1  0
  2  3  2  0
  2  4  1  0
  4  5  2  0
  5  6  1  0
  6  7  2  0
  7  8  1  0
  7 25  1  0
  8  9  1  0
  9 10  1  0
 10 11  2  0
 11 12  1  0
 12 13  2  0
 13 14  1  0
 13 24  1  0
 14 15  1  0
 14 27  1  0
 15 16  2  0
 15 17  1  0
 17 18  2  0
 18 19  1  0
 19 20  2  0
 20 21  1  0
 21 22  2  0
 22 17  1  0
 22 23  1  0
 24 10  1  0
 25 26  2  0
 26  4  1  0
M  CHG  2   1  -1   2   1
M  END
> <CMPD_CHEMBLID>
CHEMBL255522

> <STANDARD_TYPE>
Ki

> <RELATION>
=

> <STANDARD_VALUE>
83

> <STANDARD_UNITS>
nM

> <Molecular_Weight>
406.86654

$$$$

  SciTegic11272012012D

 29 32  0  0  0  0            999 V2000
    2.1455    0.2461    0.0000 C   0  0
    2.1445   -0.4139    0.0000 C   0  0
    2.8583   -0.8275    0.0000 C   0  0
    2.8570   -1.6525    0.0000 C   0  0
    2.1419   -2.0639    0.0000 C   0  0
    2.1408   -2.7239    0.0000 F   0  0
    1.4281   -1.6502    0.0000 C   0  0
    1.4293   -0.8252    0.0000 C   0  0
    0.7144   -0.4125    0.0000 C   0  0
    0.7144    0.4125    0.0000 C   0  0
    0.0000    0.8250    0.0000 C   0  0
   -0.7144    0.4125    0.0000 C   0  0
   -1.4290    0.8250    0.0000 C   0  0
   -2.1434    0.4125    0.0000 C   0  0
   -2.8591    0.8237    0.0000 N   0  0
   -3.5734    0.4100    0.0000 C   0  0
   -3.5722   -0.2500    0.0000 O   0  0
   -4.2891    0.8213    0.0000 C   0  0
   -4.2892    1.6463    0.0000 C   0  0
   -5.0037    2.0588    0.0000 C   0  0
   -5.7181    1.6462    0.0000 C   0  0
   -5.7181    0.8212    0.0000 C   0  0
   -5.0036    0.4088    0.0000 C   0  0
   -5.0036   -0.2512    0.0000 F   0  0
   -2.1434   -0.4125    0.0000 N   0  0
   -1.4290   -0.8250    0.0000 C   0  0
   -0.7144   -0.4125    0.0000 C   0  0
    0.0000   -0.8250    0.0000 C   0  0
   -2.8601    1.3737    0.0000 H   0  0
  1  2  1  0
  2  3  2  0
  3  4  1  0
  4  5  2  0
  5  6  1  0
  5  7  1  0
  7  8  2  0
  8  2  1  0
  8  9  1  0
  9 10  2  0
 10 11  1  0
 11 12  2  0
 12 13  1  0
 13 14  2  0
 14 15  1  0
 14 25  1  0
 15 16  1  0
 15 29  1  0
 16 17  2  0
 16 18  1  0
 18 19  2  0
 19 20  1  0
 20 21  2  0
 21 22  1  0
 22 23  2  0
 23 18  1  0
 23 24  1  0
 25 26  2  0
 26 27  1  0
 27 12  1  0
 27 28  2  0
 28  9  1  0
M  END
> <CMPD_CHEMBLID>
CHEMBL3685033

> <STANDARD_TYPE>
Ki

> <RELATION>
=

> <STANDARD_VALUE>
86

> <STANDARD_UNITS>
nM

> <Molecular_Weight>
374.38275

$$$$

  SciTegic11272012012D

 26 29  0  0  0  0            999 V2000
   -0.1742   -2.8725    0.0000 C   0  0
   -0.3790   -2.2450    0.0000 C   0  0
   -1.0247   -2.1088    0.0000 C   0  0
    0.1713   -1.6316    0.0000 N   0  0
    0.9918   -1.7179    0.0000 N   0  0
    1.3273   -0.9642    0.0000 C   0  0
    2.1348   -0.7925    0.0000 C   0  0
    2.7291   -1.3607    0.0000 C   0  0
    3.5209   -1.1288    0.0000 C   0  0
    3.9982   -1.5846    0.0000 F   0  0
    3.7159   -0.3272    0.0000 C   0  0
    4.4419    0.0639    0.0000 C   0  0
    4.2941    0.8756    0.0000 N   0  0
    3.4765    0.9858    0.0000 N   0  0
    3.1193    0.2426    0.0000 C   0  0
    2.3275    0.0107    0.0000 C   0  0
    0.7145   -0.4125    0.0000 C   0  0
    0.7145    0.4125    0.0000 C   0  0
    1.4285    0.8267    0.0000 N   0  0
    0.0000    0.8250    0.0000 N   0  0
   -0.7145    0.4125    0.0000 C   0  0
   -0.7145   -0.4125    0.0000 N   0  0
    0.0000   -0.8250    0.0000 C   0  0
    1.4277    1.3767    0.0000 H   0  0
    1.9053    0.5525    0.0000 H   0  0
    3.2155    1.4699    0.0000 H   0  0
  1  2  1  0
  2  3  1  0
  2  4  1  0
  4  5  1  0
  5  6  2  0
  6  7  1  0
  6 17  1  0
  7  8  2  0
  8  9  1  0
  9 10  1  0
  9 11  2  0
 11 12  1  0
 12 13  2  0
 13 14  1  0
 14 15  1  0
 14 26  1  0
 15 11  1  0
 15 16  2  0
 16  7  1  0
 17 18  2  0
 18 19  1  0
 18 20  1  0
 19 24  1  0
 19 25  1  0
 20 21  2  0
 21 22  1  0
 22 23  2  0
 23  4  1  0
 23 17  1  0
M  END
> <CMPD_CHEMBLID>
CHEMBL1242573

> <STANDARD_TYPE>
IC50

> <RELATION>
=

> <STANDARD_VALUE>
87

> <STANDARD_UNITS>
nM

> <Molecular_Weight>
311.31696

$$$$

  SciTegic11272012012D

 25 27  0  0  0  0            999 V2000
    1.2861   -0.7425    0.0000 F   0  0
    0.7145   -0.4125    0.0000 C   0  0
    0.7145    0.4125    0.0000 C   0  0
    0.0000    0.8250    0.0000 C   0  0
   -0.7145    0.4125    0.0000 C   0  0
   -0.7145   -0.4125    0.0000 C   0  0
    0.0000   -0.8250    0.0000 C   0  0
   -1.4302    0.8237    0.0000 C   0  0
   -1.4313    1.4837    0.0000 O   0  0
   -2.1445    0.4100    0.0000 N   0  0
   -2.8602    0.8213    0.0000 C   0  0
   -3.6035    0.4797    0.0000 N   0  0
   -4.1555    1.0928    0.0000 N   0  0
   -3.7430    1.8073    0.0000 C   0  0
   -4.0766    2.5608    0.0000 S   0  0
   -3.5905    3.2279    0.0000 C   0  0
   -3.9247    3.9827    0.0000 C   0  0
   -3.4397    4.6501    0.0000 C   0  0
   -3.7753    5.4038    0.0000 C   0  0
   -4.5958    5.4901    0.0000 C   0  0
   -4.8642    6.0930    0.0000 Br  0  0
   -5.0807    4.8226    0.0000 C   0  0
   -4.7451    4.0690    0.0000 C   0  0
   -2.9360    1.6358    0.0000 S   0  0
   -2.1435   -0.1400    0.0000 H   0  0
  1  2  1  0
  2  3  2  0
  3  4  1  0
  4  5  2  0
  5  6  1  0
  5  8  1  0
  6  7  2  0
  7  2  1  0
  8  9  2  0
  8 10  1  0
 10 11  1  0
 10 25  1  0
 11 12  2  0
 12 13  1  0
 13 14  2  0
 14 15  1  0
 14 24  1  0
 15 16  1  0
 16 17  1  0
 17 18  2  0
 18 19  1  0
 19 20  2  0
 20 21  1  0
 20 22  1  0
 22 23  2  0
 23 17  1  0
 24 11  1  0
M  END
> <CMPD_CHEMBLID>
CHEMBL255324

> <STANDARD_TYPE>
Ki

> <RELATION>
=

> <STANDARD_VALUE>
89

> <STANDARD_UNITS>
nM

> <Molecular_Weight>
424.31044

$$$$

  SciTegic11272012012D

 30 33  0  0  0  0            999 V2000
    1.4276   -1.4867    0.0000 C   0  0
    1.4285   -0.8267    0.0000 S   0  0
    0.7144   -0.4125    0.0000 C   0  0
    0.7144    0.4125    0.0000 N   0  0
    0.0000    0.8250    0.0000 C   0  0
    0.0017    1.6504    0.0000 N   0  0
    0.7171    2.0622    0.0000 C   0  0
    0.7188    2.8876    0.0000 C   0  0
    0.0043    3.3002    0.0000 C   0  0
    0.0044    4.1252    0.0000 C   0  0
    0.7188    4.5377    0.0000 C   0  0
    1.4333    4.1252    0.0000 C   0  0
    1.4333    3.3002    0.0000 C   0  0
    2.0049    2.9702    0.0000 Cl  0  0
   -0.7144    0.4125    0.0000 C   0  0
   -1.4986    0.6674    0.0000 C   0  0
   -1.9836    0.0000    0.0000 N   0  0
   -1.4986   -0.6674    0.0000 N   0  0
   -1.7547   -1.4507    0.0000 C   0  0
   -2.5623   -1.6213    0.0000 C   0  0
   -3.0032   -1.1301    0.0000 Cl  0  0
   -2.8189   -2.4059    0.0000 C   0  0
   -3.6259   -2.5776    0.0000 C   0  0
   -3.8807   -3.3623    0.0000 C   0  0
   -3.3285   -3.9752    0.0000 C   0  0
   -2.5216   -3.8036    0.0000 C   0  0
   -2.2668   -3.0189    0.0000 C   0  0
   -0.7144   -0.4125    0.0000 C   0  0
    0.0000   -0.8250    0.0000 N   0  0
   -0.4742    1.9263    0.0000 H   0  0
  1  2  1  0
  2  3  1  0
  3  4  2  0
  4  5  1  0
  5  6  1  0
  5 15  2  0
  6  7  1  0
  6 30  1  0
  7  8  1  0
  8  9  2  0
  9 10  1  0
 10 11  2  0
 11 12  1  0
 12 13  2  0
 13  8  1  0
 13 14  1  0
 15 16  1  0
 16 17  2  0
 17 18  1  0
 18 19  1  0
 18 28  1  0
 19 20  1  0
 20 21  1  0
 20 22  1  0
 22 23  2  0
 23 24  1  0
 24 25  2  0
 25 26  1  0
 26 27  2  0
 27 22  1  0
 28 15  1  0
 28 29  2  0
 29  3  1  0
M  END
> <CMPD_CHEMBLID>
CHEMBL236375

> <STANDARD_TYPE>
Ki

> <RELATION>
=

> <STANDARD_VALUE>
89

> <STANDARD_UNITS>
nM

> <Molecular_Weight>
444.38006

$$$$

  SciTegic11272012012D

 36 40  0  0  0  0            999 V2000
    0.5229   -3.1659    0.0000 Cl  0  0
   -0.1229   -3.0297    0.0000 C   0  0
   -0.3789   -2.2450    0.0000 C   0  0
    0.1713   -1.6316    0.0000 N   0  0
    0.9918   -1.7178    0.0000 N   0  0
    1.3273   -0.9641    0.0000 C   0  0
    0.7144   -0.4125    0.0000 C   0  0
    0.7144    0.4125    0.0000 C   0  0
    1.4285    0.8267    0.0000 N   0  0
    1.4273    1.6521    0.0000 C   0  0
    2.1413    2.0663    0.0000 C   0  0
    2.1413    2.8914    0.0000 C   0  0
    2.8558    3.3039    0.0000 C   0  0
    3.5703    2.8914    0.0000 C   0  0
    3.5703    2.0664    0.0000 C   0  0
    2.8559    1.6539    0.0000 C   0  0
    0.0000    0.8250    0.0000 N   0  0
   -0.7144    0.4125    0.0000 C   0  0
   -1.4302    0.8237    0.0000 S   0  0
   -2.1444    0.4100    0.0000 C   0  0
   -2.8602    0.8213    0.0000 C   0  0
   -3.5744    0.4075    0.0000 N   0  0
   -4.2904    0.8175    0.0000 C   0  0
   -5.0034    0.4025    0.0000 C   0  0
   -5.0005   -0.4225    0.0000 O   0  0
   -4.2846   -0.8325    0.0000 C   0  0
   -3.5716   -0.4175    0.0000 C   0  0
   -0.7144   -0.4125    0.0000 N   0  0
    0.0000   -0.8250    0.0000 C   0  0
   -0.6741   -3.6442    0.0000 C   0  0
   -0.4193   -4.4289    0.0000 C   0  0
   -0.9714   -5.0419    0.0000 C   0  0
   -1.7784   -4.8702    0.0000 C   0  0
   -2.0332   -4.0855    0.0000 C   0  0
   -1.4810   -3.4726    0.0000 C   0  0
    1.9052    0.5525    0.0000 H   0  0
  1  2  1  0
  2  3  1  0
  2 30  1  0
  3  4  1  0
  4  5  1  0
  5  6  2  0
  6  7  1  0
  7  8  2  0
  8  9  1  0
  8 17  1  0
  9 10  1  0
  9 36  1  0
 10 11  1  0
 11 12  2  0
 12 13  1  0
 13 14  2  0
 14 15  1  0
 15 16  2  0
 16 11  1  0
 17 18  2  0
 18 19  1  0
 18 28  1  0
 19 20  1  0
 20 21  1  0
 21 22  1  0
 22 23  1  0
 23 24  1  0
 24 25  1  0
 25 26  1  0
 26 27  1  0
 27 22  1  0
 28 29  2  0
 29  4  1  0
 29  7  1  0
 30 31  2  0
 31 32  1  0
 32 33  2  0
 33 34  1  0
 34 35  2  0
 35 30  1  0
M  END
> <CMPD_CHEMBLID>
CHEMBL1775039

> <STANDARD_TYPE>
Ki

> <RELATION>
=

> <STANDARD_VALUE>
90

> <STANDARD_UNITS>
nM

> <Molecular_Weight>
509.06606

$$$$

  SciTegic11272012012D

 21 23  0  0  0  0            999 V2000
   -0.5634   -2.8776    0.0000 O   0  0
   -0.2981   -3.4820    0.0000 C   0  0
    0.5224   -3.5723    0.0000 N   0  0
    1.0105   -2.9083    0.0000 C   0  0
    1.8355   -2.9112    0.0000 N   0  0
    2.0931   -2.1274    0.0000 C   0  0
    1.4273   -1.6522    0.0000 C   0  0
    1.4285   -0.8267    0.0000 C   0  0
    0.7145   -0.4125    0.0000 C   0  0
    0.7145    0.4125    0.0000 C   0  0
    0.0000    0.8250    0.0000 C   0  0
   -0.7145    0.4125    0.0000 C   0  0
   -0.7145   -0.4125    0.0000 C   0  0
    0.0000   -0.8250    0.0000 C   0  0
    0.7582   -2.1228    0.0000 S   0  0
   -0.7870   -4.1471    0.0000 C   0  0
   -1.6049   -4.1345    0.0000 C   0  0
   -1.8626   -4.9183    0.0000 C   0  0
   -1.1969   -5.4055    0.0000 C   0  0
   -0.5277   -4.9229    0.0000 S   0  0
    0.7435   -4.0759    0.0000 H   0  0
  1  2  2  0
  2  3  1  0
  2 16  1  0
  3  4  1  0
  3 21  1  0
  4  5  2  0
  5  6  1  0
  6  7  2  0
  7  8  1  0
  7 15  1  0
  8  9  1  0
  9 10  2  0
 10 11  1  0
 11 12  2  0
 12 13  1  0
 13 14  2  0
 14  9  1  0
 15  4  1  0
 16 17  2  0
 17 18  1  0
 18 19  2  0
 19 20  1  0
 20 16  1  0
M  END
> <CMPD_CHEMBLID>
CHEMBL504598

> <STANDARD_TYPE>
Ki

> <RELATION>
=

> <STANDARD_VALUE>
90

> <STANDARD_UNITS>
nM

> <Molecular_Weight>
300.39858

$$$$

  SciTegic11272012012D

 25 27  0  0  0  0            999 V2000
   -2.0134   -4.5941    0.0000 C   0  0
   -2.1705   -3.9530    0.0000 O   0  0
   -1.5746   -3.3817    0.0000 C   0  0
   -0.7828   -3.6136    0.0000 C   0  0
   -0.1861   -3.0438    0.0000 C   0  0
   -0.3810   -2.2450    0.0000 C   0  0
   -1.1730   -2.0103    0.0000 C   0  0
   -1.7697   -2.5801    0.0000 C   0  0
   -2.5614   -2.3465    0.0000 O   0  0
    0.1713   -1.6316    0.0000 C   0  0
    0.9918   -1.7179    0.0000 N   0  0
    1.3273   -0.9642    0.0000 N   0  0
    2.1337   -0.7943    0.0000 C   0  0
    2.5748   -1.2854    0.0000 C   0  0
    2.3387   -0.1669    0.0000 C   0  0
    0.7145   -0.4125    0.0000 C   0  0
    0.7145    0.4125    0.0000 N   0  0
    0.0000    0.8250    0.0000 C   0  0
   -0.7145    0.4125    0.0000 N   0  0
   -0.7145   -0.4125    0.0000 C   0  0
   -1.4302   -0.8238    0.0000 N   0  0
    0.0000   -0.8250    0.0000 C   0  0
   -1.9062   -0.5481    0.0000 H   0  0
   -1.4312   -1.3738    0.0000 H   0  0
   -2.6907   -1.8119    0.0000 H   0  0
  1  2  1  0
  2  3  1  0
  3  4  2  0
  4  5  1  0
  5  6  2  0
  6  7  1  0
  6 10  1  0
  7  8  2  0
  8  3  1  0
  8  9  1  0
  9 25  1  0
 10 11  2  0
 11 12  1  0
 12 13  1  0
 12 16  1  0
 13 14  1  0
 13 15  1  0
 16 17  2  0
 17 18  1  0
 18 19  2  0
 19 20  1  0
 20 21  1  0
 20 22  2  0
 21 23  1  0
 21 24  1  0
 22 10  1  0
 22 16  1  0
M  END
> <CMPD_CHEMBLID>
CHEMBL1242114

> <STANDARD_TYPE>
IC50

> <RELATION>
=

> <STANDARD_VALUE>
90

> <STANDARD_UNITS>
nM

> <Molecular_Weight>
299.32778

$$$$

  SciTegic11272012012D

 27 29  0  0  0  0            999 V2000
    2.0006   -0.4977    0.0000 O   0  5
    1.4285   -0.8267    0.0000 N   0  3
    1.4276   -1.4867    0.0000 O   0  0
    0.7145   -0.4125    0.0000 C   0  0
    0.7145    0.4125    0.0000 C   0  0
    0.0000    0.8250    0.0000 C   0  0
   -0.7145    0.4125    0.0000 C   0  0
   -1.4302    0.8237    0.0000 C   0  0
   -2.1445    0.4100    0.0000 S   0  0
   -2.8602    0.8213    0.0000 C   0  0
   -3.6035    0.4797    0.0000 N   0  0
   -4.1555    1.0928    0.0000 N   0  0
   -3.7430    1.8073    0.0000 C   0  0
   -4.0766    2.5608    0.0000 N   0  0
   -3.5905    3.2279    0.0000 C   0  0
   -2.9342    3.1577    0.0000 O   0  0
   -3.9247    3.9827    0.0000 C   0  0
   -3.4397    4.6501    0.0000 C   0  0
   -3.7753    5.4038    0.0000 C   0  0
   -4.5958    5.4901    0.0000 C   0  0
   -4.8642    6.0930    0.0000 Cl  0  0
   -5.0807    4.8226    0.0000 C   0  0
   -4.7451    4.0690    0.0000 C   0  0
   -2.9360    1.6358    0.0000 S   0  0
   -0.7145   -0.4125    0.0000 C   0  0
    0.0000   -0.8250    0.0000 C   0  0
   -4.6235    2.6192    0.0000 H   0  0
  1  2  1  0
  2  3  2  0
  2  4  1  0
  4  5  2  0
  5  6  1  0
  6  7  2  0
  7  8  1  0
  7 25  1  0
  8  9  1  0
  9 10  1  0
 10 11  2  0
 11 12  1  0
 12 13  2  0
 13 14  1  0
 13 24  1  0
 14 15  1  0
 14 27  1  0
 15 16  2  0
 15 17  1  0
 17 18  2  0
 18 19  1  0
 19 20  2  0
 20 21  1  0
 20 22  1  0
 22 23  2  0
 23 17  1  0
 24 10  1  0
 25 26  2  0
 26  4  1  0
M  CHG  2   1  -1   2   1
M  END
> <CMPD_CHEMBLID>
CHEMBL402568

> <STANDARD_TYPE>
Ki

> <RELATION>
=

> <STANDARD_VALUE>
92

> <STANDARD_UNITS>
nM

> <Molecular_Weight>
406.86654

$$$$

  SciTegic11272012012D

 28 30  0  0  0  0            999 V2000
    4.7100   -3.8550    0.0000 O   0  0
    3.8846   -3.8562    0.0000 C   0  0
    3.4704   -3.1422    0.0000 C   0  0
    2.6450   -3.1434    0.0000 N   0  0
    2.2307   -2.4294    0.0000 C   0  0
    2.5597   -1.8572    0.0000 O   0  0
    1.4053   -2.4306    0.0000 N   0  0
    0.9918   -1.7178    0.0000 C   0  0
    1.3273   -0.9641    0.0000 N   0  0
    0.7144   -0.4125    0.0000 C   0  0
    0.7144    0.4125    0.0000 C   0  0
    0.0000    0.8250    0.0000 C   0  0
   -0.7144    0.4125    0.0000 C   0  0
   -0.7144   -0.4125    0.0000 C   0  0
    0.0000   -0.8250    0.0000 C   0  0
    0.1713   -1.6316    0.0000 N   0  0
   -0.0017    1.6504    0.0000 C   0  0
    0.5693    1.9814    0.0000 O   0  0
   -0.7171    2.0622    0.0000 C   0  0
   -0.7201    2.8872    0.0000 C   0  0
   -1.4359    3.2972    0.0000 C   0  0
   -2.1490    2.8822    0.0000 C   0  0
   -2.1462    2.0572    0.0000 C   0  0
   -1.4303    1.6472    0.0000 C   0  0
   -0.1967   -2.0403    0.0000 H   0  0
    1.1311   -2.9074    0.0000 H   0  0
    2.3708   -3.6202    0.0000 H   0  0
    4.9860   -4.3308    0.0000 H   0  0
  1  2  1  0
  1 28  1  0
  2  3  1  0
  3  4  1  0
  4  5  1  0
  4 27  1  0
  5  6  2  0
  5  7  1  0
  7  8  1  0
  7 26  1  0
  8  9  2  0
  9 10  1  0
 10 11  2  0
 11 12  1  0
 12 13  2  0
 12 17  1  0
 13 14  1  0
 14 15  2  0
 15 10  1  0
 15 16  1  0
 16  8  1  0
 16 25  1  0
 17 18  2  0
 17 19  1  0
 19 20  2  0
 20 21  1  0
 21 22  2  0
 22 23  1  0
 23 24  2  0
 24 19  1  0
M  END
> <CMPD_CHEMBLID>
CHEMBL170250

> <STANDARD_TYPE>
IC50

> <RELATION>
=

> <STANDARD_VALUE>
94

> <STANDARD_UNITS>
nM

> <Molecular_Weight>
324.33394

$$$$

  SciTegic11272012012D

 22 24  0  0  0  0            999 V2000
    1.2861   -0.7425    0.0000 Cl  0  0
    0.7145   -0.4125    0.0000 C   0  0
    0.7145    0.4125    0.0000 C   0  0
    0.0000    0.8250    0.0000 C   0  0
   -0.7145    0.4125    0.0000 C   0  0
   -0.7145   -0.4125    0.0000 C   0  0
   -1.4285   -0.8267    0.0000 C   0  0
   -1.4273   -1.6522    0.0000 C   0  0
   -2.0931   -2.1274    0.0000 C   0  0
   -1.8354   -2.9112    0.0000 N   0  0
   -1.0104   -2.9083    0.0000 C   0  0
   -0.5224   -3.5723    0.0000 N   0  0
    0.2981   -3.4820    0.0000 C   0  0
    0.5634   -2.8776    0.0000 O   0  0
    0.7870   -4.1471    0.0000 C   0  0
    1.6049   -4.1345    0.0000 C   0  0
    1.8626   -4.9182    0.0000 C   0  0
    1.1969   -5.4055    0.0000 C   0  0
    0.5277   -4.9229    0.0000 S   0  0
   -0.7582   -2.1228    0.0000 S   0  0
    0.0000   -0.8250    0.0000 C   0  0
   -0.7435   -4.0759    0.0000 H   0  0
  1  2  1  0
  2  3  2  0
  3  4  1  0
  4  5  2  0
  5  6  1  0
  6  7  1  0
  6 21  2  0
  7  8  1  0
  8  9  2  0
  9 10  1  0
 10 11  2  0
 11 12  1  0
 11 20  1  0
 12 13  1  0
 12 22  1  0
 13 14  2  0
 13 15  1  0
 15 16  2  0
 16 17  1  0
 17 18  2  0
 18 19  1  0
 19 15  1  0
 20  8  1  0
 21  2  1  0
M  END
> <CMPD_CHEMBLID>
CHEMBL518430

> <STANDARD_TYPE>
Ki

> <RELATION>
=

> <STANDARD_VALUE>
97

> <STANDARD_UNITS>
nM

> <Molecular_Weight>
334.84364

$$$$

  SciTegic11272012012D

 34 38  0  0  0  0            999 V2000
    2.0013   -0.4930    0.0000 C   0  0
    1.4302   -0.8237    0.0000 O   0  0
    0.7144   -0.4125    0.0000 C   0  0
    0.7144    0.4125    0.0000 C   0  0
    0.0000    0.8250    0.0000 C   0  0
    0.0000    1.6500    0.0000 C   0  0
    0.7140    2.0642    0.0000 O   0  0
    0.7128    2.8896    0.0000 C   0  0
   -0.0031    3.2997    0.0000 C   0  0
   -0.0059    4.1247    0.0000 C   0  0
    0.7071    4.5397    0.0000 C   0  0
    0.8756    5.3469    0.0000 N   0  0
    1.6958    5.4359    0.0000 C   0  0
    2.0238    6.0086    0.0000 C   0  0
    2.0340    4.6834    0.0000 C   0  0
    1.4230    4.1297    0.0000 C   0  0
    1.4258    3.3047    0.0000 C   0  0
    1.9986    2.9767    0.0000 F   0  0
   -0.7145    2.0625    0.0000 N   0  0
   -1.4290    1.6500    0.0000 C   0  0
   -1.4290    0.8250    0.0000 N   0  0
   -0.7144    0.4125    0.0000 C   0  0
   -0.7144   -0.4125    0.0000 C   0  0
    0.0000   -0.8250    0.0000 C   0  0
   -0.0017   -1.6504    0.0000 O   0  0
   -0.7171   -2.0622    0.0000 C   0  0
   -0.7188   -2.8876    0.0000 C   0  0
   -1.4343   -3.2993    0.0000 C   0  0
   -1.4360   -4.1248    0.0000 N   0  0
   -2.1034   -4.5977    0.0000 C   0  0
   -1.8485   -5.3823    0.0000 C   0  0
   -1.0235   -5.3823    0.0000 C   0  0
   -0.7685   -4.5977    0.0000 C   0  0
    0.5061    5.7543    0.0000 H   0  0
  1  2  1  0
  2  3  1  0
  3  4  2  0
  4  5  1  0
  5  6  2  0
  6  7  1  0
  6 19  1  0
  7  8  1  0
  8  9  2  0
  9 10  1  0
 10 11  2  0
 11 12  1  0
 12 13  1  0
 12 34  1  0
 13 14  1  0
 13 15  2  0
 15 16  1  0
 16 11  1  0
 16 17  2  0
 17  8  1  0
 17 18  1  0
 19 20  2  0
 20 21  1  0
 21 22  2  0
 22  5  1  0
 22 23  1  0
 23 24  2  0
 24  3  1  0
 24 25  1  0
 25 26  1  0
 26 27  1  0
 27 28  1  0
 28 29  1  0
 29 30  1  0
 30 31  1  0
 31 32  1  0
 32 33  1  0
 33 29  1  0
M  END
> <CMPD_CHEMBLID>
CHEMBL491473

> <STANDARD_TYPE>
Ki

> <RELATION>
=

> <STANDARD_VALUE>
100

> <STANDARD_UNITS>
nM

> <Molecular_Weight>
450.50528

$$$$

  SciTegic11272012012D

 33 37  0  0  0  0            999 V2000
    7.0956   -1.8163    0.0000 C   0  0
    6.4356   -1.8163    0.0000 N   0  0
    6.0231   -2.5308    0.0000 C   0  0
    5.1981   -2.5308    0.0000 C   0  0
    4.7855   -1.8163    0.0000 N   0  0
    5.1981   -1.1018    0.0000 C   0  0
    6.0231   -1.1018    0.0000 C   0  0
    3.9602   -1.8150    0.0000 C   0  0
    3.5465   -2.5288    0.0000 C   0  0
    2.7215   -2.5275    0.0000 C   0  0
    2.3102   -1.8124    0.0000 C   0  0
    1.5039   -1.6398    0.0000 N   0  0
    1.4293   -0.8252    0.0000 C   0  0
    2.1731   -0.4848    0.0000 N   0  0
    2.7238   -1.0986    0.0000 C   0  0
    3.5488   -1.0998    0.0000 C   0  0
    0.7144   -0.4125    0.0000 C   0  0
    0.7144    0.4125    0.0000 C   0  0
    1.4302    0.8238    0.0000 N   0  0
    0.0000    0.8250    0.0000 C   0  0
    0.0000    1.6500    0.0000 C   0  0
    0.5716    1.9800    0.0000 F   0  0
   -0.7145    2.0625    0.0000 C   0  0
   -1.4290    1.6500    0.0000 C   0  0
   -1.4290    0.8250    0.0000 C   0  0
   -0.7144    0.4125    0.0000 C   0  0
   -0.7144   -0.4125    0.0000 N   0  0
    0.0000   -0.8250    0.0000 C   0  0
    0.0000   -1.4850    0.0000 O   0  0
   -1.1908   -0.6875    0.0000 H   0  0
    1.9061    0.5481    0.0000 H   0  0
    1.4312    1.3738    0.0000 H   0  0
    2.2852    0.0536    0.0000 H   0  0
  1  2  1  0
  2  3  1  0
  3  4  1  0
  4  5  1  0
  5  6  1  0
  5  8  1  0
  6  7  1  0
  7  2  1  0
  8  9  2  0
  9 10  1  0
 10 11  2  0
 11 12  1  0
 12 13  2  0
 13 14  1  0
 13 17  1  0
 14 15  1  0
 14 33  1  0
 15 11  1  0
 15 16  2  0
 16  8  1  0
 17 18  2  0
 18 19  1  0
 18 20  1  0
 19 31  1  0
 19 32  1  0
 20 21  2  0
 21 22  1  0
 21 23  1  0
 23 24  2  0
 24 25  1  0
 25 26  2  0
 26 20  1  0
 26 27  1  0
 27 28  1  0
 27 30  1  0
 28 17  1  0
 28 29  2  0
M  END
> <CMPD_CHEMBLID>
CHEMBL522892

> <STANDARD_TYPE>
Ki

> <RELATION>
=

> <STANDARD_VALUE>
100

> <STANDARD_UNITS>
nM

> <Molecular_Weight>
392.42944

$$$$

  SciTegic11272012012D

 33 35  0  0  0  0            999 V2000
    2.1444   -0.4129    0.0000 N   0  0
    1.4293   -0.8252    0.0000 S   0  0
    1.4291   -1.4852    0.0000 O   0  0
    2.0007   -1.1555    0.0000 O   0  0
    0.7144   -0.4125    0.0000 C   0  0
    0.7144    0.4125    0.0000 C   0  0
    0.0000    0.8250    0.0000 C   0  0
   -0.7144    0.4125    0.0000 C   0  0
   -0.7144   -0.4125    0.0000 C   0  0
   -1.4285   -0.8267    0.0000 N   0  0
   -2.1444   -0.4159    0.0000 C   0  0
   -2.8587   -0.8288    0.0000 N   0  0
   -3.5735   -0.4168    0.0000 C   0  0
   -3.5740    0.4082    0.0000 C   0  0
   -4.1458    0.7378    0.0000 Br  0  0
   -2.8598    0.8211    0.0000 C   0  0
   -2.8586    1.6466    0.0000 N   0  0
   -2.1435    2.0588    0.0000 C   0  0
   -2.1411    2.8838    0.0000 C   0  0
   -1.4255    3.2943    0.0000 C   0  0
   -0.7121    2.8798    0.0000 C   0  0
    0.0047    3.2891    0.0000 O   0  0
    0.7178    2.8733    0.0000 C   0  0
    1.4347    3.2826    0.0000 C   0  0
    2.0078    3.6098    0.0000 N   0  0
   -0.7144    2.0548    0.0000 C   0  0
   -1.4301    1.6443    0.0000 C   0  0
   -2.1451    0.4091    0.0000 N   0  0
    0.0000   -0.8250    0.0000 C   0  0
   -3.3346    1.9221    0.0000 H   0  0
   -1.4272   -1.3767    0.0000 H   0  0
    2.6207   -0.6879    0.0000 H   0  0
    2.1446    0.1371    0.0000 H   0  0
  1  2  1  0
  1 32  1  0
  1 33  1  0
  2  3  2  0
  2  4  2  0
  2  5  1  0
  5  6  2  0
  6  7  1  0
  7  8  2  0
  8  9  1  0
  9 10  1  0
  9 29  2  0
 10 11  1  0
 10 31  1  0
 11 12  2  0
 12 13  1  0
 13 14  2  0
 14 15  1  0
 14 16  1  0
 16 17  1  0
 16 28  2  0
 17 18  1  0
 17 30  1  0
 18 19  2  0
 19 20  1  0
 20 21  2  0
 21 22  1  0
 21 26  1  0
 22 23  1  0
 23 24  1  0
 24 25  3  0
 26 27  2  0
 27 18  1  0
 28 11  1  0
 29  5  1  0
M  END
> <CMPD_CHEMBLID>
CHEMBL1987034

> <STANDARD_TYPE>
Ki

> <RELATION>
=

> <STANDARD_VALUE>
100

> <STANDARD_UNITS>
nM

> <Molecular_Weight>
475.3191

$$$$

  SciTegic11272012012D

 34 38  0  0  0  0            999 V2000
   -4.8473   -0.4553    0.0000 C   0  0
   -4.2786   -0.7901    0.0000 N   0  0
   -4.2855   -1.6151    0.0000 C   0  0
   -3.5746   -2.0336    0.0000 C   0  0
   -2.8566   -1.6273    0.0000 N   0  0
   -2.8497   -0.8023    0.0000 C   0  0
   -3.5606   -0.3837    0.0000 C   0  0
   -2.1447   -2.0449    0.0000 C   0  0
   -2.1503   -2.8699    0.0000 C   0  0
   -1.4387   -3.2873    0.0000 C   0  0
   -0.7214   -2.8798    0.0000 C   0  0
   -0.0086   -3.2960    0.0000 N   0  0
    0.7086   -2.8872    0.0000 C   0  0
    1.4216   -3.3022    0.0000 N   0  0
    2.1375   -2.8922    0.0000 C   0  0
    2.1403   -2.0672    0.0000 C   0  0
    2.7131   -1.7392    0.0000 Cl  0  0
    1.4273   -1.6521    0.0000 C   0  0
    1.4285   -0.8267    0.0000 N   0  0
    0.7145   -0.4125    0.0000 C   0  0
    0.7145    0.4125    0.0000 C   0  0
    0.0000    0.8250    0.0000 C   0  0
   -0.7145    0.4125    0.0000 C   0  0
   -1.4986    0.6674    0.0000 N   0  0
   -1.9836    0.0000    0.0000 N   0  0
   -1.4986   -0.6674    0.0000 C   0  0
   -0.7145   -0.4125    0.0000 C   0  0
    0.0000   -0.8250    0.0000 C   0  0
    0.7114   -2.0622    0.0000 N   0  0
   -0.7158   -2.0548    0.0000 C   0  0
   -1.4274   -1.6374    0.0000 C   0  0
   -1.6685    1.1905    0.0000 H   0  0
    1.9053   -0.5525    0.0000 H   0  0
   -0.0114   -3.8460    0.0000 H   0  0
  1  2  1  0
  2  3  1  0
  3  4  1  0
  4  5  1  0
  5  6  1  0
  5  8  1  0
  6  7  1  0
  7  2  1  0
  8  9  2  0
  9 10  1  0
 10 11  2  0
 11 12  1  0
 11 30  1  0
 12 13  1  0
 12 34  1  0
 13 14  2  0
 14 15  1  0
 15 16  2  0
 16 17  1  0
 16 18  1  0
 18 19  1  0
 18 29  2  0
 19 20  1  0
 19 33  1  0
 20 21  2  0
 21 22  1  0
 22 23  2  0
 23 24  1  0
 24 25  1  0
 24 32  1  0
 25 26  2  0
 26 27  1  0
 27 23  1  0
 27 28  2  0
 28 20  1  0
 29 13  1  0
 30 31  2  0
 31  8  1  0
M  END
> <CMPD_CHEMBLID>
CHEMBL1979690

> <STANDARD_TYPE>
Ki

> <RELATION>
=

> <STANDARD_VALUE>
100

> <STANDARD_UNITS>
nM

> <Molecular_Weight>
434.92462

$$$$

  SciTegic11272012012D

 31 34  0  0  0  0            999 V2000
    2.1404   -2.7263    0.0000 C   0  0
    2.1413   -2.0663    0.0000 C   0  0
    1.4273   -1.6521    0.0000 C   0  0
    1.4285   -0.8267    0.0000 S   0  0
    0.7144   -0.4125    0.0000 C   0  0
    0.7144    0.4125    0.0000 N   0  0
    0.0000    0.8250    0.0000 C   0  0
    0.0017    1.6504    0.0000 N   0  0
    0.7171    2.0621    0.0000 C   0  0
    0.7188    2.8876    0.0000 C   0  0
    1.4333    3.3001    0.0000 C   0  0
    1.4333    4.1251    0.0000 C   0  0
    0.7188    4.5376    0.0000 C   0  0
    0.0043    4.1251    0.0000 C   0  0
    0.0043    3.3001    0.0000 C   0  0
   -0.7144    0.4125    0.0000 C   0  0
   -1.4986    0.6674    0.0000 C   0  0
   -1.9836    0.0000    0.0000 N   0  0
   -1.4986   -0.6674    0.0000 N   0  0
   -1.7547   -1.4507    0.0000 C   0  0
   -2.5623   -1.6213    0.0000 C   0  0
   -3.0032   -1.1301    0.0000 Cl  0  0
   -2.8189   -2.4058    0.0000 C   0  0
   -3.6258   -2.5775    0.0000 C   0  0
   -3.8806   -3.3622    0.0000 C   0  0
   -3.3285   -3.9752    0.0000 C   0  0
   -2.5216   -3.8035    0.0000 C   0  0
   -2.2667   -3.0189    0.0000 C   0  0
   -0.7144   -0.4125    0.0000 C   0  0
    0.0000   -0.8250    0.0000 N   0  0
   -0.4741    1.9262    0.0000 H   0  0
  1  2  1  0
  2  3  1  0
  3  4  1  0
  4  5  1  0
  5  6  2  0
  6  7  1  0
  7  8  1  0
  7 16  2  0
  8  9  1  0
  8 31  1  0
  9 10  1  0
 10 11  2  0
 11 12  1  0
 12 13  2  0
 13 14  1  0
 14 15  2  0
 15 10  1  0
 16 17  1  0
 17 18  2  0
 18 19  1  0
 19 20  1  0
 19 29  1  0
 20 21  1  0
 21 22  1  0
 21 23  1  0
 23 24  2  0
 24 25  1  0
 25 26  2  0
 26 27  1  0
 27 28  2  0
 28 23  1  0
 29 16  1  0
 29 30  2  0
 30  5  1  0
M  END
> <CMPD_CHEMBLID>
CHEMBL454923

> <STANDARD_TYPE>
Ki

> <RELATION>
=

> <STANDARD_VALUE>
100

> <STANDARD_UNITS>
nM

> <Molecular_Weight>
437.98816

$$$$

  SciTegic11272012012D

 33 36  0  0  0  0            999 V2000
    2.5597   -1.8572    0.0000 O   0  0
    2.2307   -2.4294    0.0000 C   0  0
    2.6449   -3.1434    0.0000 N   0  0
    3.4704   -3.1422    0.0000 C   0  0
    3.8846   -3.8562    0.0000 C   0  0
    4.7100   -3.8550    0.0000 C   0  0
    5.1250   -4.5680    0.0000 C   0  0
    5.9500   -4.5651    0.0000 C   0  0
    6.3601   -3.8493    0.0000 N   0  0
    5.9451   -3.1362    0.0000 C   0  0
    5.1201   -3.1391    0.0000 C   0  0
    1.4053   -2.4305    0.0000 N   0  0
    0.9918   -1.7178    0.0000 C   0  0
    1.3273   -0.9641    0.0000 N   0  0
    0.7144   -0.4125    0.0000 C   0  0
    0.7144    0.4125    0.0000 C   0  0
    0.0000    0.8250    0.0000 C   0  0
   -0.7144    0.4125    0.0000 C   0  0
   -0.7144   -0.4125    0.0000 C   0  0
    0.0000   -0.8250    0.0000 C   0  0
    0.1713   -1.6316    0.0000 N   0  0
   -1.4302    0.8237    0.0000 C   0  0
   -1.4313    1.4837    0.0000 O   0  0
   -2.1444    0.4100    0.0000 C   0  0
   -2.8604    0.8200    0.0000 C   0  0
   -3.5734    0.4050    0.0000 C   0  0
   -3.5706   -0.4200    0.0000 C   0  0
   -2.8546   -0.8300    0.0000 C   0  0
   -2.1416   -0.4150    0.0000 C   0  0
   -0.1967   -2.0403    0.0000 H   0  0
    1.1311   -2.9074    0.0000 H   0  0
    6.9100   -3.8473    0.0000 H   0  0
    2.3708   -3.6202    0.0000 H   0  0
  1  2  2  0
  2  3  1  0
  2 12  1  0
  3  4  1  0
  3 33  1  0
  4  5  1  0
  5  6  1  0
  6  7  1  0
  7  8  1  0
  8  9  1  0
  9 10  1  0
  9 32  1  0
 10 11  1  0
 11  6  1  0
 12 13  1  0
 12 31  1  0
 13 14  2  0
 14 15  1  0
 15 16  2  0
 16 17  1  0
 17 18  2  0
 18 19  1  0
 18 22  1  0
 19 20  2  0
 20 15  1  0
 20 21  1  0
 21 13  1  0
 21 30  1  0
 22 23  2  0
 22 24  1  0
 24 25  2  0
 25 26  1  0
 26 27  2  0
 27 28  1  0
 28 29  2  0
 29 24  1  0
M  END
> <CMPD_CHEMBLID>
CHEMBL2059164

> <STANDARD_TYPE>
IC50

> <RELATION>
=

> <STANDARD_VALUE>
100

> <STANDARD_UNITS>
nM

> <Molecular_Weight>
391.4662

$$$$

  SciTegic11272012012D

 29 33  0  0  0  0            999 V2000
    2.7487   -2.5117    0.0000 O   0  0
    3.1611   -1.9964    0.0000 C   0  0
    2.8606   -1.2276    0.0000 N   0  0
    2.0446   -1.1029    0.0000 C   0  0
    1.7432   -0.3349    0.0000 C   0  0
    0.9269   -0.2115    0.0000 C   0  0
    0.7433    0.5928    0.0000 C   0  0
    1.2593    1.0042    0.0000 O   0  0
    0.0000    0.9507    0.0000 N   0  0
   -0.7433    0.5927    0.0000 N   0  0
   -0.9269   -0.2116    0.0000 C   0  0
   -0.4125   -0.8566    0.0000 C   0  0
   -0.6357   -1.6622    0.0000 C   0  0
    0.0460   -2.1269    0.0000 N   0  0
    0.7144   -1.6250    0.0000 C   0  0
    1.5302   -1.7479    0.0000 C   0  0
    0.4125   -0.8566    0.0000 C   0  0
    3.9770   -2.1211    0.0000 C   0  0
    4.6953   -1.8122    0.0000 C   0  0
    4.5723   -2.6280    0.0000 C   0  0
    4.8616   -3.4011    0.0000 C   0  0
    4.6116   -4.1753    0.0000 C   0  0
    5.1640   -4.7880    0.0000 C   0  0
    5.9708   -4.6160    0.0000 C   0  0
    6.2253   -3.8312    0.0000 C   0  0
    5.6728   -3.2184    0.0000 C   0  0
    0.0586   -2.6768    0.0000 H   0  0
    0.0000    1.5007    0.0000 H   0  0
    3.2042   -0.7982    0.0000 H   0  0
  1  2  2  0
  2  3  1  0
  2 18  1  0
  3  4  1  0
  3 29  1  0
  4  5  2  0
  5  6  1  0
  6  7  1  0
  7  8  2  0
  7  9  1  0
  9 10  1  0
  9 28  1  0
 10 11  2  0
 11 12  1  0
 12 13  2  0
 13 14  1  0
 14 15  1  0
 14 27  1  0
 15 16  2  0
 15 17  1  0
 16  4  1  0
 17  6  2  0
 17 12  1  0
 18 19  1  0
 19 20  1  0
 20 18  1  0
 20 21  1  0
 21 22  2  0
 22 23  1  0
 23 24  2  0
 24 25  1  0
 25 26  2  0
 26 21  1  0
M  END
> <CMPD_CHEMBLID>
CHEMBL1969502

> <STANDARD_TYPE>
Ki

> <RELATION>
=

> <STANDARD_VALUE>
100

> <STANDARD_UNITS>
nM

> <Molecular_Weight>
344.36664

$$$$

  SciTegic11272012012D

 34 37  0  0  0  0            999 V2000
    1.2861   -0.7425    0.0000 C   0  0
    0.7145   -0.4125    0.0000 C   0  0
    0.7145    0.4125    0.0000 C   0  0
    0.0000    0.8250    0.0000 C   0  0
    0.0000    1.4850    0.0000 C   0  0
   -0.7145    0.4125    0.0000 C   0  0
   -1.4986    0.6674    0.0000 O   0  0
   -1.9836    0.0000    0.0000 C   0  0
   -2.8076   -0.0017    0.0000 N   0  0
   -3.2193   -0.7172    0.0000 C   0  0
   -2.8043   -1.4303    0.0000 C   0  0
   -3.2143   -2.1462    0.0000 C   0  0
   -4.0393   -2.1491    0.0000 C   0  0
   -4.4543   -1.4360    0.0000 C   0  0
   -4.0443   -0.7201    0.0000 C   0  0
   -4.3763   -0.1497    0.0000 F   0  0
   -4.4496   -2.8653    0.0000 C   0  0
   -5.2746   -2.8669    0.0000 C   0  0
   -5.6858   -3.5822    0.0000 C   0  0
   -5.2719   -4.2959    0.0000 C   0  0
   -4.4469   -4.2943    0.0000 C   0  0
   -4.0343   -5.0093    0.0000 C   0  0
   -3.3743   -5.0092    0.0000 O   0  0
   -4.4467   -5.7243    0.0000 N   0  0
   -4.0358   -3.5791    0.0000 C   0  0
   -3.2103   -3.5758    0.0000 N   0  0
   -1.4986   -0.6674    0.0000 N   0  0
   -0.7145   -0.4125    0.0000 C   0  0
    0.0000   -0.8250    0.0000 C   0  0
   -2.9368   -3.0986    0.0000 H   0  0
   -2.9335   -4.0512    0.0000 H   0  0
   -4.1717   -6.2007    0.0000 H   0  0
   -4.9967   -5.7244    0.0000 H   0  0
   -3.0834    0.4741    0.0000 H   0  0
  1  2  1  0
  2  3  2  0
  3  4  1  0
  4  5  1  0
  4  6  2  0
  6  7  1  0
  7  8  1  0
  8  9  1  0
  8 27  2  0
  9 10  1  0
  9 34  1  0
 10 11  2  0
 11 12  1  0
 12 13  2  0
 13 14  1  0
 13 17  1  0
 14 15  2  0
 15 10  1  0
 15 16  1  0
 17 18  2  0
 18 19  1  0
 19 20  2  0
 20 21  1  0
 21 22  1  0
 21 25  2  0
 22 23  2  0
 22 24  1  0
 24 32  1  0
 24 33  1  0
 25 17  1  0
 25 26  1  0
 26 30  1  0
 26 31  1  0
 27 28  1  0
 28  6  1  0
 28 29  2  0
 29  2  1  0
M  END
> <CMPD_CHEMBLID>
CHEMBL1990884

> <STANDARD_TYPE>
Ki

> <RELATION>
=

> <STANDARD_VALUE>
100

> <STANDARD_UNITS>
nM

> <Molecular_Weight>
390.41026

$$$$

  SciTegic11272012012D

 34 38  0  0  0  0            999 V2000
    5.5681   -3.2277    0.0000 C   0  0
    4.9975   -2.8959    0.0000 N   0  0
    5.0002   -2.0709    0.0000 C   0  0
    4.2870   -1.6562    0.0000 C   0  0
    3.5711   -2.0663    0.0000 N   0  0
    3.5686   -2.8913    0.0000 C   0  0
    4.2817   -3.3061    0.0000 C   0  0
    2.8570   -1.6525    0.0000 C   0  0
    2.8583   -0.8275    0.0000 C   0  0
    2.1445   -0.4139    0.0000 C   0  0
    1.4293   -0.8252    0.0000 C   0  0
    1.4281   -1.6502    0.0000 C   0  0
    2.1419   -2.0639    0.0000 N   0  0
    0.7144   -0.4125    0.0000 C   0  0
    0.7144    0.4125    0.0000 C   0  0
    0.0000    0.8250    0.0000 N   0  0
   -0.7144    0.4125    0.0000 C   0  0
   -1.4290    0.8250    0.0000 N   0  0
   -2.1434    0.4125    0.0000 C   0  0
   -2.1434   -0.4125    0.0000 C   0  0
   -1.4290   -0.8250    0.0000 N   0  0
   -1.4306   -1.6504    0.0000 C   0  0
   -2.1461   -2.0622    0.0000 C   0  0
   -2.1490   -2.8872    0.0000 C   0  0
   -1.5786   -3.2192    0.0000 F   0  0
   -2.8649   -3.2972    0.0000 C   0  0
   -3.5779   -2.8823    0.0000 C   0  0
   -3.5751   -2.0573    0.0000 C   0  0
   -4.1455   -1.7253    0.0000 F   0  0
   -2.8592   -1.6472    0.0000 C   0  0
   -2.8569   -0.9872    0.0000 Cl  0  0
   -0.7144   -0.4125    0.0000 C   0  0
    0.0000   -0.8250    0.0000 C   0  0
   -1.4290    1.3750    0.0000 H   0  0
  1  2  1  0
  2  3  1  0
  3  4  1  0
  4  5  1  0
  5  6  1  0
  5  8  1  0
  6  7  1  0
  7  2  1  0
  8  9  2  0
  9 10  1  0
 10 11  2  0
 11 12  1  0
 11 14  1  0
 12 13  2  0
 13  8  1  0
 14 15  2  0
 15 16  1  0
 16 17  2  0
 17 18  1  0
 18 19  1  0
 18 34  1  0
 19 20  1  0
 20 21  1  0
 21 22  1  0
 21 32  1  0
 22 23  1  0
 23 24  2  0
 24 25  1  0
 24 26  1  0
 26 27  2  0
 27 28  1  0
 28 29  1  0
 28 30  2  0
 30 23  1  0
 30 31  1  0
 32 17  1  0
 32 33  2  0
 33 14  1  0
M  END
> <CMPD_CHEMBLID>
CHEMBL1164265

> <STANDARD_TYPE>
Ki

> <RELATION>
=

> <STANDARD_VALUE>
100

> <STANDARD_UNITS>
nM

> <Molecular_Weight>
470.94531

$$$$

  SciTegic11272012012D

 30 33  0  0  0  0            999 V2000
    1.4276   -1.4867    0.0000 C   0  0
    1.4285   -0.8267    0.0000 S   0  0
    0.7144   -0.4125    0.0000 C   0  0
    0.7144    0.4125    0.0000 N   0  0
    0.0000    0.8250    0.0000 C   0  0
    0.0017    1.6504    0.0000 N   0  0
    0.7171    2.0622    0.0000 C   0  0
    0.7188    2.8876    0.0000 C   0  0
    1.4333    3.3002    0.0000 C   0  0
    1.4333    4.1252    0.0000 C   0  0
    0.7188    4.5377    0.0000 C   0  0
    0.7188    5.1977    0.0000 F   0  0
    0.0043    4.1252    0.0000 C   0  0
    0.0043    3.3002    0.0000 C   0  0
   -0.7144    0.4125    0.0000 C   0  0
   -1.4986    0.6674    0.0000 C   0  0
   -1.9836    0.0000    0.0000 N   0  0
   -1.4986   -0.6674    0.0000 N   0  0
   -1.7547   -1.4507    0.0000 C   0  0
   -2.5623   -1.6213    0.0000 C   0  0
   -3.0032   -1.1301    0.0000 Cl  0  0
   -2.8189   -2.4059    0.0000 C   0  0
   -3.6259   -2.5776    0.0000 C   0  0
   -3.8807   -3.3623    0.0000 C   0  0
   -3.3285   -3.9752    0.0000 C   0  0
   -2.5216   -3.8036    0.0000 C   0  0
   -2.2668   -3.0189    0.0000 C   0  0
   -0.7144   -0.4125    0.0000 C   0  0
    0.0000   -0.8250    0.0000 N   0  0
   -0.4742    1.9263    0.0000 H   0  0
  1  2  1  0
  2  3  1  0
  3  4  2  0
  4  5  1  0
  5  6  1  0
  5 15  2  0
  6  7  1  0
  6 30  1  0
  7  8  1  0
  8  9  2  0
  9 10  1  0
 10 11  2  0
 11 12  1  0
 11 13  1  0
 13 14  2  0
 14  8  1  0
 15 16  1  0
 16 17  2  0
 17 18  1  0
 18 19  1  0
 18 28  1  0
 19 20  1  0
 20 21  1  0
 20 22  1  0
 22 23  2  0
 23 24  1  0
 24 25  2  0
 25 26  1  0
 26 27  2  0
 27 22  1  0
 28 15  1  0
 28 29  2  0
 29  3  1  0
M  END
> <CMPD_CHEMBLID>
CHEMBL241540

> <STANDARD_TYPE>
Ki

> <RELATION>
=

> <STANDARD_VALUE>
100

> <STANDARD_UNITS>
nM

> <Molecular_Weight>
427.92546

$$$$

  SciTegic11272012012D

 29 32  0  0  0  0            999 V2000
   -2.2201   -5.3606    0.0000 F   0  0
   -1.7784   -4.8702    0.0000 C   0  0
   -0.9714   -5.0419    0.0000 C   0  0
   -0.4193   -4.4289    0.0000 C   0  0
   -0.6741   -3.6442    0.0000 C   0  0
   -1.4810   -3.4726    0.0000 C   0  0
   -2.0332   -4.0856    0.0000 C   0  0
   -0.1229   -3.0297    0.0000 C   0  0
    0.5229   -3.1659    0.0000 Cl  0  0
   -0.3789   -2.2450    0.0000 C   0  0
    0.1713   -1.6316    0.0000 N   0  0
    0.9918   -1.7178    0.0000 N   0  0
    1.3273   -0.9641    0.0000 C   0  0
    0.7144   -0.4125    0.0000 C   0  0
    0.7144    0.4125    0.0000 C   0  0
    1.4285    0.8267    0.0000 N   0  0
    1.4273    1.6521    0.0000 C   0  0
    2.1413    2.0663    0.0000 C   0  0
    2.1413    2.8914    0.0000 C   0  0
    2.8558    3.3039    0.0000 C   0  0
    3.5703    2.8914    0.0000 C   0  0
    3.5703    2.0664    0.0000 C   0  0
    4.1419    1.7365    0.0000 F   0  0
    2.8559    1.6539    0.0000 C   0  0
    0.0000    0.8250    0.0000 N   0  0
   -0.7144    0.4125    0.0000 C   0  0
   -0.7144   -0.4125    0.0000 N   0  0
    0.0000   -0.8250    0.0000 C   0  0
    1.9053    0.5525    0.0000 H   0  0
  1  2  1  0
  2  3  2  0
  3  4  1  0
  4  5  2  0
  5  6  1  0
  5  8  1  0
  6  7  2  0
  7  2  1  0
  8  9  1  0
  8 10  1  0
 10 11  1  0
 11 12  1  0
 12 13  2  0
 13 14  1  0
 14 15  2  0
 15 16  1  0
 15 25  1  0
 16 17  1  0
 16 29  1  0
 17 18  1  0
 18 19  2  0
 19 20  1  0
 20 21  2  0
 21 22  1  0
 22 23  1  0
 22 24  2  0
 24 18  1  0
 25 26  2  0
 26 27  1  0
 27 28  2  0
 28 11  1  0
 28 14  1  0
M  END
> <CMPD_CHEMBLID>
CHEMBL261827

> <STANDARD_TYPE>
Ki

> <RELATION>
=

> <STANDARD_VALUE>
100

> <STANDARD_UNITS>
nM

> <Molecular_Weight>
399.82435

$$$$

  SciTegic11272012012D

 36 40  0  0  0  0            999 V2000
    1.4302   -0.8237    0.0000 N   0  0
    0.7144   -0.4125    0.0000 C   0  0
    0.7144    0.4125    0.0000 N   0  0
    0.0000    0.8250    0.0000 C   0  0
   -0.7144    0.4125    0.0000 C   0  0
   -1.4293    0.8252    0.0000 C   0  0
   -1.5064    1.6395    0.0000 C   0  0
   -2.3137    1.8098    0.0000 O   0  0
   -2.7250    1.0947    0.0000 C   0  0
   -2.1721    0.4825    0.0000 C   0  0
   -0.7144   -0.4125    0.0000 C   0  0
   -1.3273   -0.9641    0.0000 S   0  0
   -0.9918   -1.7178    0.0000 C   0  0
   -0.1713   -1.6316    0.0000 C   0  0
    0.3811   -2.2449    0.0000 C   0  0
    0.1862   -3.0438    0.0000 C   0  0
    0.7828   -3.6135    0.0000 C   0  0
    1.5746   -3.3816    0.0000 C   0  0
    2.1728   -3.9505    0.0000 N   0  0
    2.9646   -3.7174    0.0000 C   0  0
    3.1195   -3.0758    0.0000 O   0  0
    3.5628   -4.2862    0.0000 N   0  0
    4.3546   -4.0531    0.0000 C   0  0
    4.5470   -3.2508    0.0000 C   0  0
    5.3379   -3.0162    0.0000 C   0  0
    5.9366   -3.5839    0.0000 C   0  0
    5.7443   -4.3861    0.0000 C   0  0
    4.9533   -4.6207    0.0000 C   0  0
    4.7995   -5.2626    0.0000 F   0  0
    1.7697   -2.5800    0.0000 C   0  0
    1.1730   -2.0103    0.0000 C   0  0
    0.0000   -0.8250    0.0000 C   0  0
    3.4337   -4.8208    0.0000 H   0  0
    2.0436   -4.4851    0.0000 H   0  0
    1.9061   -0.5481    0.0000 H   0  0
    1.4312   -1.3737    0.0000 H   0  0
  1  2  1  0
  1 35  1  0
  1 36  1  0
  2  3  2  0
  3  4  1  0
  4  5  2  0
  5  6  1  0
  5 11  1  0
  6  7  2  0
  7  8  1  0
  8  9  1  0
  9 10  2  0
 10  6  1  0
 11 12  1  0
 12 13  1  0
 13 14  2  0
 14 15  1  0
 14 32  1  0
 15 16  2  0
 16 17  1  0
 17 18  2  0
 18 19  1  0
 18 30  1  0
 19 20  1  0
 19 34  1  0
 20 21  2  0
 20 22  1  0
 22 23  1  0
 22 33  1  0
 23 24  2  0
 24 25  1  0
 25 26  2  0
 26 27  1  0
 27 28  2  0
 28 23  1  0
 28 29  1  0
 30 31  2  0
 31 15  1  0
 32  2  1  0
 32 11  2  0
M  END
> <CMPD_CHEMBLID>
CHEMBL1965570

> <STANDARD_TYPE>
Ki

> <RELATION>
=

> <STANDARD_VALUE>
100

> <STANDARD_UNITS>
nM

> <Molecular_Weight>
444.48078

$$$$

  SciTegic11272012012D

 38 42  0  0  0  0            999 V2000
    1.2861   -0.7425    0.0000 C   0  0
    0.7144   -0.4125    0.0000 N   0  0
    0.7144    0.4125    0.0000 C   0  0
    0.0000    0.8250    0.0000 C   0  0
   -0.7144    0.4125    0.0000 N   0  0
   -1.4302    0.8237    0.0000 C   0  0
   -2.1444    0.4100    0.0000 C   0  0
   -2.8604    0.8200    0.0000 C   0  0
   -3.5734    0.4050    0.0000 C   0  0
   -3.5706   -0.4200    0.0000 C   0  0
   -2.8546   -0.8300    0.0000 C   0  0
   -2.1416   -0.4150    0.0000 C   0  0
   -4.2832   -0.8367    0.0000 C   0  0
   -4.8564   -0.5096    0.0000 O   0  0
   -4.2791   -1.6621    0.0000 N   0  0
   -4.9917   -2.0788    0.0000 C   0  0
   -4.9889   -2.9038    0.0000 C   0  0
   -5.7019   -3.3187    0.0000 C   0  0
   -6.4177   -2.9087    0.0000 C   0  0
   -6.4207   -2.0837    0.0000 C   0  0
   -7.1361   -1.6720    0.0000 N   0  0
   -7.1378   -0.8466    0.0000 C   0  0
   -7.8522   -0.4341    0.0000 N   0  0
   -7.8523    0.3909    0.0000 C   0  0
   -7.1379    0.8034    0.0000 C   0  0
   -6.4234    0.3910    0.0000 C   0  0
   -6.4234   -0.4340    0.0000 N   0  0
   -5.7085    0.8037    0.0000 C   0  0
   -5.7072    1.6287    0.0000 C   0  0
   -4.9921    2.0401    0.0000 C   0  0
   -4.2783    1.6265    0.0000 C   0  0
   -4.2796    0.8015    0.0000 N   0  0
   -4.9947    0.3901    0.0000 C   0  0
   -5.7076   -1.6687    0.0000 C   0  0
   -0.7144   -0.4125    0.0000 C   0  0
    0.0000   -0.8250    0.0000 C   0  0
   -7.6120   -1.9479    0.0000 H   0  0
   -3.8014   -1.9346    0.0000 H   0  0
  1  2  1  0
  2  3  1  0
  3  4  1  0
  4  5  1  0
  5  6  1  0
  5 35  1  0
  6  7  1  0
  7  8  2  0
  8  9  1  0
  9 10  2  0
 10 11  1  0
 10 13  1  0
 11 12  2  0
 12  7  1  0
 13 14  2  0
 13 15  1  0
 15 16  1  0
 15 38  1  0
 16 17  2  0
 17 18  1  0
 18 19  2  0
 19 20  1  0
 20 21  1  0
 20 34  2  0
 21 22  1  0
 21 37  1  0
 22 23  2  0
 23 24  1  0
 24 25  2  0
 25 26  1  0
 26 27  2  0
 26 28  1  0
 27 22  1  0
 28 29  2  0
 29 30  1  0
 30 31  2  0
 31 32  1  0
 32 33  2  0
 33 28  1  0
 34 16  1  0
 35 36  1  0
 36  2  1  0
M  END
> <CMPD_CHEMBLID>
CHEMBL56904

> <STANDARD_TYPE>
IC50

> <RELATION>
=

> <STANDARD_VALUE>
100

> <STANDARD_UNITS>
nM

> <Molecular_Weight>
479.57616

$$$$

  SciTegic11272012012D

 29 32  0  0  0  0            999 V2000
    2.1246   -5.2056    0.0000 C   0  0
    2.1289   -4.5456    0.0000 C   0  0
    1.4171   -4.1277    0.0000 N   0  0
    0.7002   -4.5370    0.0000 C   0  0
    0.6965   -5.1969    0.0000 O   0  0
    0.1304   -4.2040    0.0000 C   0  0
    1.4216   -3.3023    0.0000 C   0  0
    2.1376   -2.8922    0.0000 C   0  0
    2.1404   -2.0672    0.0000 C   0  0
    1.4273   -1.6522    0.0000 C   0  0
    1.4285   -0.8267    0.0000 N   0  0
    0.7145   -0.4125    0.0000 C   0  0
    0.7145    0.4125    0.0000 N   0  0
    0.0000    0.8250    0.0000 C   0  0
    0.0017    1.6505    0.0000 N   0  0
    0.7172    2.0622    0.0000 C   0  0
    1.0886    2.7502    0.0000 C   0  0
    1.4986    2.0343    0.0000 C   0  0
   -0.7145    0.4125    0.0000 C   0  0
   -1.4987    0.6674    0.0000 N   0  0
   -1.9836    0.0000    0.0000 C   0  0
   -1.4987   -0.6674    0.0000 N   0  0
   -0.7145   -0.4125    0.0000 C   0  0
    0.0000   -0.8250    0.0000 N   0  0
    0.7114   -2.0623    0.0000 C   0  0
    0.7086   -2.8873    0.0000 C   0  0
   -1.6686   -1.1906    0.0000 H   0  0
   -0.4742    1.9263    0.0000 H   0  0
    1.9053   -0.5525    0.0000 H   0  0
  1  2  1  0
  2  3  1  0
  3  4  1  0
  3  7  1  0
  4  5  2  0
  4  6  1  0
  7  8  2  0
  8  9  1  0
  9 10  2  0
 10 11  1  0
 10 25  1  0
 11 12  1  0
 11 29  1  0
 12 13  2  0
 13 14  1  0
 14 15  1  0
 14 19  2  0
 15 16  1  0
 15 28  1  0
 16 17  1  0
 17 18  1  0
 18 16  1  0
 19 20  1  0
 20 21  2  0
 21 22  1  0
 22 23  1  0
 22 27  1  0
 23 19  1  0
 23 24  2  0
 24 12  1  0
 25 26  2  0
 26  7  1  0
M  END
> <CMPD_CHEMBLID>
CHEMBL2006564

> <STANDARD_TYPE>
Ki

> <RELATION>
=

> <STANDARD_VALUE>
100

> <STANDARD_UNITS>
nM

> <Molecular_Weight>
351.40564

$$$$

  SciTegic11272012012D

 39 42  0  0  0  0            999 V2000
    4.1468   -0.7363    0.0000 C   0  0
    3.5745   -0.4075    0.0000 O   0  0
    2.8602   -0.8213    0.0000 C   0  0
    2.1445   -0.4100    0.0000 C   0  0
    1.4302   -0.8237    0.0000 O   0  0
    0.7145   -0.4125    0.0000 C   0  0
    0.7145    0.4125    0.0000 C   0  0
    0.0000    0.8250    0.0000 C   0  0
    0.0000    1.6500    0.0000 N   0  0
   -0.7145    2.0625    0.0000 C   0  0
   -1.4290    1.6500    0.0000 N   0  0
   -1.4290    0.8250    0.0000 C   0  0
   -2.1447    0.4137    0.0000 N   0  0
   -2.8590    0.8275    0.0000 C   0  0
   -2.8562    1.6525    0.0000 C   0  0
   -3.5692    2.0675    0.0000 C   0  0
   -4.2851    1.6574    0.0000 C   0  0
   -4.8555    1.9894    0.0000 F   0  0
   -4.2879    0.8324    0.0000 C   0  0
   -4.8607    0.5044    0.0000 Cl  0  0
   -3.5749    0.4175    0.0000 C   0  0
   -3.5772   -0.2425    0.0000 F   0  0
   -0.7145    0.4125    0.0000 C   0  0
   -0.7145   -0.4125    0.0000 C   0  0
    0.0000   -0.8250    0.0000 C   0  0
   -0.0017   -1.6505    0.0000 N   0  0
   -0.7172   -2.0622    0.0000 C   0  0
   -1.2882   -1.7312    0.0000 O   0  0
   -0.7189   -2.8876    0.0000 C   0  0
   -0.0514   -3.3606    0.0000 C   0  0
   -0.3064   -4.1452    0.0000 C   0  0
   -1.1314   -4.1452    0.0000 C   0  0
   -1.3863   -3.3605    0.0000 N   0  0
   -2.1685   -3.1015    0.0000 C   0  0
   -2.3019   -2.4552    0.0000 O   0  0
   -2.7854   -3.6500    0.0000 C   0  0
   -3.4120   -3.4425    0.0000 C   0  0
    0.4742   -1.9263    0.0000 H   0  0
   -2.1456   -0.1363    0.0000 H   0  0
  1  2  1  0
  2  3  1  0
  3  4  1  0
  4  5  1  0
  5  6  1  0
  6  7  2  0
  7  8  1  0
  8  9  2  0
  9 10  1  0
 10 11  2  0
 11 12  1  0
 12 13  1  0
 12 23  2  0
 13 14  1  0
 13 39  1  0
 14 15  2  0
 15 16  1  0
 16 17  2  0
 17 18  1  0
 17 19  1  0
 19 20  1  0
 19 21  2  0
 21 14  1  0
 21 22  1  0
 23  8  1  0
 23 24  1  0
 24 25  2  0
 25  6  1  0
 25 26  1  0
 26 27  1  0
 26 38  1  0
 27 28  2  0
 27 29  1  0
 29 30  1  0
 30 31  1  0
 31 32  1  0
 32 33  1  0
 33 29  1  0
 33 34  1  0
 34 35  2  0
 34 36  1  0
 36 37  2  0
M  END
> <CMPD_CHEMBLID>
CHEMBL569880

> <STANDARD_TYPE>
IC50

> <RELATION>
<

> <STANDARD_VALUE>
100

> <STANDARD_UNITS>
nM

> <Molecular_Weight>
531.93897

$$$$

  SciTegic11272012012D

 38 42  0  0  0  0            999 V2000
    1.4276   -1.4867    0.0000 C   0  0
    1.4285   -0.8267    0.0000 N   0  0
    0.7144   -0.4125    0.0000 C   0  0
    0.7144    0.4125    0.0000 C   0  0
    0.0000    0.8250    0.0000 N   0  0
   -0.7144    0.4125    0.0000 C   0  0
   -0.7144   -0.4125    0.0000 C   0  0
    0.0000   -0.8250    0.0000 N   0  0
   -1.4293   -0.8252    0.0000 C   0  0
   -2.1445   -0.4139    0.0000 C   0  0
   -2.8583   -0.8275    0.0000 N   0  0
   -2.8570   -1.6525    0.0000 C   0  0
   -3.4280   -1.9834    0.0000 O   0  0
   -2.1419   -2.0639    0.0000 C   0  0
   -1.4280   -1.6502    0.0000 C   0  0
   -2.1388   -2.8893    0.0000 N   0  0
   -1.4227   -3.2999    0.0000 C   0  0
   -0.8523   -2.9680    0.0000 O   0  0
   -1.4197   -4.1253    0.0000 C   0  0
   -0.7046   -4.5367    0.0000 C   0  0
   -0.7033   -5.3617    0.0000 C   0  0
   -1.4171   -5.7754    0.0000 C   0  0
   -2.1322   -5.3640    0.0000 C   0  0
   -2.1336   -4.5390    0.0000 C   0  0
   -1.4158   -6.6008    0.0000 N   0  0
   -2.0832   -7.0738    0.0000 C   0  0
   -1.8282   -7.8583    0.0000 C   0  0
   -1.0032   -7.8583    0.0000 C   0  0
   -0.7483   -7.0737    0.0000 C   0  0
    0.0339   -6.8147    0.0000 C   0  0
    0.6508   -7.3631    0.0000 N   0  0
    1.4481   -7.1802    0.0000 C   0  0
    1.8636   -7.8929    0.0000 C   0  0
    1.3142   -8.5084    0.0000 C   0  0
    0.5591   -8.1760    0.0000 C   0  0
   -2.6143   -3.1659    0.0000 H   0  0
   -3.3350   -0.5533    0.0000 H   0  0
    1.9053   -0.5525    0.0000 H   0  0
  1  2  1  0
  2  3  1  0
  2 38  1  0
  3  4  2  0
  4  5  1  0
  5  6  2  0
  6  7  1  0
  7  8  2  0
  7  9  1  0
  8  3  1  0
  9 10  2  0
 10 11  1  0
 11 12  1  0
 11 37  1  0
 12 13  2  0
 12 14  1  0
 14 15  2  0
 14 16  1  0
 15  9  1  0
 16 17  1  0
 16 36  1  0
 17 18  2  0
 17 19  1  0
 19 20  2  0
 20 21  1  0
 21 22  2  0
 22 23  1  0
 22 25  1  0
 23 24  2  0
 24 19  1  0
 25 26  1  0
 26 27  1  0
 27 28  1  0
 28 29  1  0
 29 25  1  0
 29 30  1  0
 30 31  1  0
 31 32  1  0
 32 33  1  0
 33 34  1  0
 34 35  1  0
 35 31  1  0
M  END
> <CMPD_CHEMBLID>
CHEMBL1765781

> <STANDARD_TYPE>
Ki

> <RELATION>
>

> <STANDARD_VALUE>
1000

> <STANDARD_UNITS>
nM

> <Molecular_Weight>
473.57004

$$$$

  SciTegic11272012012D

 37 40  0  0  0  0            999 V2000
    1.2861   -0.7425    0.0000 C   0  0
    0.7144   -0.4125    0.0000 N   0  0
    0.7144    0.4125    0.0000 C   0  0
    0.0000    0.8250    0.0000 C   0  0
   -0.7144    0.4125    0.0000 N   0  0
   -1.4302    0.8237    0.0000 C   0  0
   -2.1444    0.4100    0.0000 C   0  0
   -2.1416   -0.4150    0.0000 C   0  0
   -2.8546   -0.8300    0.0000 C   0  0
   -3.5706   -0.4200    0.0000 C   0  0
   -4.2849   -0.8337    0.0000 N   0  0
   -5.0006   -0.4225    0.0000 C   0  0
   -5.0017    0.2375    0.0000 O   0  0
   -5.7149   -0.8362    0.0000 C   0  0
   -6.4307   -0.4261    0.0000 C   0  0
   -7.1438   -0.8411    0.0000 C   0  0
   -7.1409   -1.6661    0.0000 C   0  0
   -7.7114   -1.9980    0.0000 C   0  0
   -6.4251   -2.0761    0.0000 C   0  0
   -5.7120   -1.6612    0.0000 C   0  0
   -6.4223   -2.9016    0.0000 C   0  0
   -6.4194   -3.7270    0.0000 C   0  0
   -6.4166   -4.5524    0.0000 C   0  0
   -7.0824   -5.0276    0.0000 C   0  0
   -6.8247   -5.8113    0.0000 N   0  0
   -5.9997   -5.8085    0.0000 C   0  0
   -5.7475   -5.0230    0.0000 N   0  0
   -3.5734    0.4050    0.0000 C   0  0
   -2.8604    0.8200    0.0000 C   0  0
   -2.8633    1.6454    0.0000 C   0  0
   -3.4358    1.9738    0.0000 F   0  0
   -2.2927    1.9772    0.0000 F   0  0
   -2.8653    2.3054    0.0000 F   0  0
   -0.7144   -0.4125    0.0000 C   0  0
    0.0000   -0.8250    0.0000 C   0  0
   -5.2261   -4.8482    0.0000 H   0  0
   -4.2839   -1.3837    0.0000 H   0  0
  1  2  1  0
  2  3  1  0
  3  4  1  0
  4  5  1  0
  5  6  1  0
  5 34  1  0
  6  7  1  0
  7  8  2  0
  8  9  1  0
  9 10  2  0
 10 11  1  0
 10 28  1  0
 11 12  1  0
 11 37  1  0
 12 13  2  0
 12 14  1  0
 14 15  2  0
 15 16  1  0
 16 17  2  0
 17 18  1  0
 17 19  1  0
 19 20  2  0
 19 21  1  0
 20 14  1  0
 21 22  3  0
 22 23  1  0
 23 24  2  0
 24 25  1  0
 25 26  2  0
 26 27  1  0
 27 23  1  0
 27 36  1  0
 28 29  2  0
 29  7  1  0
 29 30  1  0
 30 31  1  0
 30 32  1  0
 30 33  1  0
 34 35  1  0
 35  2  1  0
M  END
> <CMPD_CHEMBLID>
CHEMBL1784631

> <STANDARD_TYPE>
IC50

> <RELATION>
=

> <STANDARD_VALUE>
1000

> <STANDARD_UNITS>
nM

> <Molecular_Weight>
481.51275

$$$$

  SciTegic11272012012D

 30 33  0  0  0  0            999 V2000
    1.4276   -1.4867    0.0000 C   0  0
    1.4285   -0.8267    0.0000 S   0  0
    0.7144   -0.4125    0.0000 C   0  0
    0.7144    0.4125    0.0000 N   0  0
    0.0000    0.8250    0.0000 C   0  0
    0.0017    1.6504    0.0000 N   0  0
    0.7171    2.0622    0.0000 C   0  0
    0.7188    2.8876    0.0000 C   0  0
    0.0043    3.3002    0.0000 C   0  0
    0.0044    4.1252    0.0000 C   0  0
    0.7188    4.5377    0.0000 C   0  0
    1.4333    4.1252    0.0000 C   0  0
    1.4333    3.3002    0.0000 C   0  0
    2.0049    2.9702    0.0000 F   0  0
   -0.7144    0.4125    0.0000 C   0  0
   -1.4986    0.6674    0.0000 C   0  0
   -1.9836    0.0000    0.0000 N   0  0
   -1.4986   -0.6674    0.0000 N   0  0
   -1.7547   -1.4507    0.0000 C   0  0
   -2.5623   -1.6213    0.0000 C   0  0
   -3.0032   -1.1301    0.0000 C   0  0
   -2.8189   -2.4059    0.0000 C   0  0
   -3.6259   -2.5776    0.0000 C   0  0
   -3.8807   -3.3623    0.0000 C   0  0
   -3.3285   -3.9752    0.0000 C   0  0
   -2.5216   -3.8036    0.0000 C   0  0
   -2.2668   -3.0189    0.0000 C   0  0
   -0.7144   -0.4125    0.0000 C   0  0
    0.0000   -0.8250    0.0000 N   0  0
   -0.4742    1.9263    0.0000 H   0  0
  1  2  1  0
  2  3  1  0
  3  4  2  0
  4  5  1  0
  5  6  1  0
  5 15  2  0
  6  7  1  0
  6 30  1  0
  7  8  1  0
  8  9  2  0
  9 10  1  0
 10 11  2  0
 11 12  1  0
 12 13  2  0
 13  8  1  0
 13 14  1  0
 15 16  1  0
 16 17  2  0
 17 18  1  0
 18 19  1  0
 18 28  1  0
 19 20  1  0
 20 21  1  0
 20 22  1  0
 22 23  2  0
 23 24  1  0
 24 25  2  0
 25 26  1  0
 26 27  2  0
 27 22  1  0
 28 15  1  0
 28 29  2  0
 29  3  1  0
M  END
> <CMPD_CHEMBLID>
CHEMBL1836675

> <STANDARD_TYPE>
Ki

> <RELATION>
=

> <STANDARD_VALUE>
1000

> <STANDARD_UNITS>
nM

> <Molecular_Weight>
407.50698

$$$$

  SciTegic11272012012D

 23 24  0  0  0  0            999 V2000
    2.1404   -2.7264    0.0000 C   0  0
    2.1413   -2.0663    0.0000 C   0  0
    1.4273   -1.6521    0.0000 C   0  0
    0.8551   -1.9812    0.0000 O   0  0
    1.4285   -0.8267    0.0000 N   0  0
    0.7144   -0.4125    0.0000 C   0  0
    0.7144    0.4125    0.0000 C   0  0
    0.0000    0.8250    0.0000 C   0  0
   -0.7144    0.4125    0.0000 C   0  0
   -1.4285    0.8267    0.0000 C   0  0
   -2.0006    0.4977    0.0000 O   0  0
   -1.4273    1.6521    0.0000 N   0  0
   -2.1404    2.0672    0.0000 C   0  0
   -2.1375    2.8922    0.0000 C   0  0
   -1.4216    3.3022    0.0000 N   0  0
   -0.7086    2.8872    0.0000 C   0  0
   -0.7114    2.0622    0.0000 C   0  0
   -0.7144   -0.4125    0.0000 C   0  0
   -1.4285   -0.8267    0.0000 O   0  0
    0.0000   -0.8250    0.0000 C   0  0
   -1.4277   -1.3767    0.0000 H   0  0
   -1.4197    3.8522    0.0000 H   0  0
    1.9053   -0.5525    0.0000 H   0  0
  1  2  1  0
  2  3  1  0
  3  4  2  0
  3  5  1  0
  5  6  1  0
  5 23  1  0
  6  7  2  0
  7  8  1  0
  8  9  2  0
  9 10  1  0
  9 18  1  0
 10 11  2  0
 10 12  1  0
 12 13  1  0
 13 14  1  0
 14 15  1  0
 15 16  1  0
 15 22  1  0
 16 17  1  0
 17 12  1  0
 18 19  1  0
 18 20  2  0
 19 21  1  0
 20  6  1  0
M  END
> <CMPD_CHEMBLID>
CHEMBL1988141

> <STANDARD_TYPE>
Ki

> <RELATION>
=

> <STANDARD_VALUE>
1000

> <STANDARD_UNITS>
nM

> <Molecular_Weight>
277.31896

$$$$

  SciTegic11272012012D

 22 24  0  0  0  0            999 V2000
    1.2861   -0.7425    0.0000 C   0  0
    0.7144   -0.4125    0.0000 C   0  0
    0.7144    0.4125    0.0000 C   0  0
    0.0000    0.8250    0.0000 C   0  0
   -0.7144    0.4125    0.0000 N   0  0
   -0.7144   -0.4125    0.0000 C   0  0
   -1.4285   -0.8267    0.0000 N   0  0
   -1.4273   -1.6521    0.0000 C   0  0
   -2.1403   -2.0672    0.0000 C   0  0
   -2.1375   -2.8922    0.0000 C   0  0
   -2.7079   -3.2241    0.0000 C   0  0
   -1.4216   -3.3022    0.0000 N   0  0
   -0.7086   -2.8872    0.0000 C   0  0
   -0.7114   -2.0622    0.0000 N   0  0
    0.0077   -3.2975    0.0000 C   0  0
    0.0119   -4.1224    0.0000 C   0  0
    0.7285   -4.5314    0.0000 C   0  0
    1.4408   -4.1152    0.0000 C   0  0
    1.4367   -3.2902    0.0000 C   0  0
    0.7201   -2.8814    0.0000 C   0  0
    0.0000   -0.8250    0.0000 C   0  0
   -1.9052   -0.5525    0.0000 H   0  0
  1  2  1  0
  2  3  2  0
  3  4  1  0
  4  5  2  0
  5  6  1  0
  6  7  1  0
  6 21  2  0
  7  8  1  0
  7 22  1  0
  8  9  2  0
  9 10  1  0
 10 11  1  0
 10 12  2  0
 12 13  1  0
 13 14  2  0
 13 15  1  0
 14  8  1  0
 15 16  2  0
 16 17  1  0
 17 18  2  0
 18 19  1  0
 19 20  2  0
 20 15  1  0
 21  2  1  0
M  END
> <CMPD_CHEMBLID>
CHEMBL1985367

> <STANDARD_TYPE>
Ki

> <RELATION>
=

> <STANDARD_VALUE>
1000

> <STANDARD_UNITS>
nM

> <Molecular_Weight>
276.33574

$$$$

  SciTegic11272012012D

 33 36  0  0  0  0            999 V2000
    1.2861   -0.7425    0.0000 C   0  0
    0.7144   -0.4125    0.0000 C   0  0
    0.7144    0.4125    0.0000 C   0  0
    0.0000    0.8250    0.0000 C   0  0
   -0.7144    0.4125    0.0000 C   0  0
   -1.4302    0.8237    0.0000 N   0  0
   -1.4324    1.6492    0.0000 C   0  0
   -0.8616    1.9805    0.0000 O   0  0
   -2.1481    2.0605    0.0000 N   0  0
   -2.1503    2.8859    0.0000 C   0  0
   -2.8651    3.2980    0.0000 C   0  0
   -2.8656    4.1230    0.0000 C   0  0
   -2.1514    4.5360    0.0000 C   0  0
   -1.4367    4.1240    0.0000 N   0  0
   -1.4362    3.2990    0.0000 C   0  0
   -0.7144   -0.4125    0.0000 C   0  0
    0.0000   -0.8250    0.0000 C   0  0
   -0.0017   -1.6504    0.0000 N   0  0
   -0.7171   -2.0622    0.0000 C   0  0
   -0.7201   -2.8872    0.0000 N   0  0
   -1.4359   -3.2972    0.0000 C   0  0
   -2.1490   -2.8822    0.0000 C   0  0
   -2.1461   -2.0572    0.0000 C   0  0
   -1.4302   -1.6472    0.0000 N   0  0
   -2.8595   -1.6421    0.0000 C   0  0
   -3.5761   -2.0509    0.0000 C   0  0
   -4.2885   -1.6348    0.0000 C   0  0
   -4.2843   -0.8099    0.0000 C   0  0
   -3.5678   -0.4009    0.0000 N   0  0
   -2.8554   -0.8170    0.0000 C   0  0
    0.4742   -1.9263    0.0000 H   0  0
   -2.6238    1.7843    0.0000 H   0  0
   -1.9059    0.5476    0.0000 H   0  0
  1  2  1  0
  2  3  2  0
  3  4  1  0
  4  5  2  0
  5  6  1  0
  5 16  1  0
  6  7  1  0
  6 33  1  0
  7  8  2  0
  7  9  1  0
  9 10  1  0
  9 32  1  0
 10 11  2  0
 11 12  1  0
 12 13  2  0
 13 14  1  0
 14 15  2  0
 15 10  1  0
 16 17  2  0
 17  2  1  0
 17 18  1  0
 18 19  1  0
 18 31  1  0
 19 20  2  0
 20 21  1  0
 21 22  2  0
 22 23  1  0
 23 24  2  0
 23 25  1  0
 24 19  1  0
 25 26  2  0
 26 27  1  0
 27 28  2  0
 28 29  1  0
 29 30  2  0
 30 25  1  0
M  END
> <CMPD_CHEMBLID>
CHEMBL187080

> <STANDARD_TYPE>
IC50

> <RELATION>
=

> <STANDARD_VALUE>
1000

> <STANDARD_UNITS>
nM

> <Molecular_Weight>
397.43256

$$$$

  SciTegic11272012012D

 37 39  0  0  0  0            999 V2000
    2.0015   -1.9807    0.0000 C   0  0
    1.4299   -1.6507    0.0000 C   0  0
    0.8584   -1.9809    0.0000 C   0  0
    1.4294   -0.8252    0.0000 S   0  0
    2.0011   -1.1550    0.0000 O   0  0
    2.0008   -0.4951    0.0000 O   0  0
    0.7145   -0.4125    0.0000 C   0  0
    0.7145    0.4125    0.0000 C   0  0
    0.0000    0.8250    0.0000 C   0  0
   -0.7145    0.4125    0.0000 C   0  0
   -0.7145   -0.4125    0.0000 C   0  0
    0.0000   -0.8250    0.0000 C   0  0
   -0.0017   -1.6505    0.0000 N   0  0
   -0.7172   -2.0622    0.0000 C   0  0
   -1.4302   -1.6472    0.0000 N   0  0
   -2.1462   -2.0573    0.0000 C   0  0
   -2.8605   -1.6435    0.0000 N   0  0
   -3.5762   -2.0548    0.0000 C   0  0
   -4.2907   -1.6424    0.0000 C   0  0
   -5.0052   -2.0549    0.0000 C   0  0
   -5.0052   -2.8799    0.0000 C   0  0
   -4.2907   -3.2924    0.0000 C   0  0
   -4.2890   -4.1179    0.0000 N   0  0
   -3.5735   -4.5296    0.0000 C   0  0
   -3.0025   -4.1985    0.0000 O   0  0
   -3.5718   -5.3550    0.0000 C   0  0
   -2.8564   -5.7667    0.0000 N   0  0
   -3.5762   -2.8799    0.0000 C   0  0
   -2.1490   -2.8823    0.0000 N   0  0
   -1.4360   -3.2972    0.0000 C   0  0
   -0.7201   -2.8872    0.0000 C   0  0
   -0.1496   -3.2192    0.0000 Cl  0  0
   -2.8552   -6.3167    0.0000 H   0  0
   -2.3805   -5.4909    0.0000 H   0  0
   -4.7648   -4.3937    0.0000 H   0  0
   -2.8595   -1.0935    0.0000 H   0  0
    0.4742   -1.9263    0.0000 H   0  0
  1  2  1  0
  2  3  1  0
  2  4  1  0
  4  5  2  0
  4  6  2  0
  4  7  1  0
  7  8  2  0
  8  9  1  0
  9 10  2  0
 10 11  1  0
 11 12  2  0
 12  7  1  0
 12 13  1  0
 13 14  1  0
 13 37  1  0
 14 15  2  0
 15 16  1  0
 16 17  1  0
 16 29  2  0
 17 18  1  0
 17 36  1  0
 18 19  2  0
 19 20  1  0
 20 21  2  0
 21 22  1  0
 22 23  1  0
 22 28  2  0
 23 24  1  0
 23 35  1  0
 24 25  2  0
 24 26  1  0
 26 27  1  0
 27 33  1  0
 27 34  1  0
 28 18  1  0
 29 30  1  0
 30 31  2  0
 31 14  1  0
 31 32  1  0
M  END
> <CMPD_CHEMBLID>
CHEMBL3357439

> <STANDARD_TYPE>
IC50

> <RELATION>
>

> <STANDARD_VALUE>
1000

> <STANDARD_UNITS>
nM

> <Molecular_Weight>
474.96372

$$$$

  SciTegic11272012012D

 32 37  0  0  0  0            999 V2000
   -0.5954    0.5442    0.0000 C   0  0
   -0.0310    0.8863    0.0000 C   0  0
    0.7123    0.5284    0.0000 C   0  0
    1.4493    1.1558    0.0000 C   0  0
    0.8043    1.6702    0.0000 C   0  0
    0.0000    1.8538    0.0000 N   0  0
   -0.8043    1.6702    0.0000 C   0  0
   -1.4494    1.1558    0.0000 C   0  0
   -1.8073    0.4125    0.0000 N   0  0
   -1.8073   -0.4125    0.0000 N   0  0
   -1.4493   -1.1558    0.0000 C   0  0
   -0.8043   -1.6702    0.0000 C   0  0
   -0.0784   -1.9291    0.0000 C   0  0
    0.3941   -1.2528    0.0000 C   0  0
    0.0448   -0.5055    0.0000 C   0  0
   -0.6736   -0.5768    0.0000 C   0  0
   -0.8572    0.2274    0.0000 C   0  0
   -0.2633    0.7985    0.0000 O   0  0
    0.0000   -1.8538    0.0000 C   0  0
    0.8043   -1.6702    0.0000 N   0  0
    1.4493   -1.1558    0.0000 C   0  0
    1.8073   -0.4125    0.0000 C   0  0
    1.8073    0.4125    0.0000 O   0  0
    2.1325    0.3072    0.0000 C   0  0
    1.4209    0.7246    0.0000 C   0  0
    0.7036    0.3171    0.0000 C   0  0
    0.9773   -0.3827    0.0000 C   0  0
    0.1546   -0.3211    0.0000 N   0  0
   -0.3101   -1.0027    0.0000 C   0  0
   -1.1260   -0.8754    0.0000 O   0  0
   -1.3243   -0.3624    0.0000 H   0  0
   -0.3945    1.3327    0.0000 H   0  0
  1  2  1  0
  2  3  1  0
  3  4  1  0
  4  5  1  0
  5  6  1  0
  6  2  1  0
  6  7  1  0
  7  8  1  0
  8  9  1  0
  9 10  1  0
 10 11  2  0
 11 12  1  0
 12 13  2  0
 12 19  1  0
 13 14  1  0
 14 15  2  0
 15 16  1  0
 16 11  1  0
 16 17  2  0
 17  9  1  0
 17 18  1  0
 18 32  1  0
 19 20  2  0
 20 21  1  0
 21 22  2  0
 22 23  1  0
 22 24  1  0
 23  4  1  0
 24 25  2  0
 25 26  1  0
 26 27  2  0
 27 21  1  0
 27 28  1  0
 28 29  2  0
 29 19  1  0
 29 30  1  0
 30 31  1  0
M  END
> <CMPD_CHEMBLID>
CHEMBL215803

> <STANDARD_TYPE>
IC50

> <RELATION>
>

> <STANDARD_VALUE>
1000

> <STANDARD_UNITS>
nM

> <Molecular_Weight>
403.43384

$$$$

  SciTegic11272012012D

 42 46  0  0  0  0            999 V2000
    1.4276   -1.4867    0.0000 C   0  0
    1.4285   -0.8267    0.0000 O   0  0
    0.7145   -0.4125    0.0000 C   0  0
    0.7145    0.4125    0.0000 C   0  0
    0.0000    0.8250    0.0000 C   0  0
   -0.7145    0.4125    0.0000 C   0  0
   -1.4290    0.8250    0.0000 C   0  0
   -1.4307    1.6505    0.0000 O   0  0
   -2.1461    2.0622    0.0000 C   0  0
   -2.1490    2.8872    0.0000 C   0  0
   -2.8649    3.2972    0.0000 C   0  0
   -3.5780    2.8822    0.0000 C   0  0
   -4.2952    3.2910    0.0000 N   0  0
   -5.0080    2.8748    0.0000 C   0  0
   -5.0045    2.2148    0.0000 O   0  0
   -5.7251    3.2836    0.0000 C   0  0
   -6.4672    2.9394    0.0000 C   0  0
   -6.5984    2.2926    0.0000 C   0  0
   -7.0214    3.5506    0.0000 N   0  0
   -7.8408    3.4633    0.0000 C   0  0
   -8.3273    4.1302    0.0000 C   0  0
   -8.0599    4.7336    0.0000 C   0  0
   -7.6710    4.2004    0.0000 C   0  0
   -9.1481    4.0428    0.0000 O   0  0
   -6.6113    4.2665    0.0000 N   0  0
   -5.8038    4.0978    0.0000 C   0  0
   -5.3122    4.5382    0.0000 O   0  0
   -6.9497    5.0194    0.0000 C   0  0
   -7.7592    5.1633    0.0000 C   0  0
   -8.0399    5.9392    0.0000 C   0  0
   -7.5083    6.5701    0.0000 C   0  0
   -6.6961    6.4252    0.0000 C   0  0
   -6.4155    5.6494    0.0000 C   0  0
   -3.5751    2.0572    0.0000 N   0  0
   -2.8592    1.6472    0.0000 C   0  0
   -2.1434    0.4125    0.0000 C   0  0
   -2.1434   -0.4125    0.0000 C   0  0
   -1.4290   -0.8250    0.0000 N   0  0
   -0.7145   -0.4125    0.0000 C   0  0
    0.0000   -0.8250    0.0000 C   0  0
   -9.4723    4.4870    0.0000 H   0  0
   -4.2980    3.8410    0.0000 H   0  0
  1  2  1  0
  2  3  1  0
  3  4  2  0
  4  5  1  0
  5  6  2  0
  6  7  1  0
  7  8  1  0
  7 36  2  0
  8  9  1  0
  9 10  2  0
 10 11  1  0
 11 12  2  0
 12 13  1  0
 12 34  1  0
 13 14  1  0
 13 42  1  0
 14 15  2  0
 14 16  1  0
 16 17  2  0
 17 18  1  0
 17 19  1  0
 19 20  1  0
 19 25  1  0
 20 21  1  0
 21 22  1  0
 21 23  1  0
 21 24  1  0
 24 41  1  0
 25 26  1  0
 25 28  1  0
 26 16  1  0
 26 27  2  0
 28 29  2  0
 29 30  1  0
 30 31  2  0
 31 32  1  0
 32 33  2  0
 33 28  1  0
 34 35  2  0
 35  9  1  0
 36 37  1  0
 37 38  2  0
 38 39  1  0
 39  6  1  0
 39 40  2  0
 40  3  1  0
M  END
> <CMPD_CHEMBLID>
CHEMBL460472

> <STANDARD_TYPE>
IC50

> <RELATION>
=

> <STANDARD_VALUE>
1000

> <STANDARD_UNITS>
nM

> <Molecular_Weight>
539.58176

$$$$

  SciTegic11272012012D

 26 29  0  0  0  0            999 V2000
    2.2568   -3.0994    0.0000 C   0  0
    2.6450   -2.5657    0.0000 C   0  0
    3.3013   -2.6353    0.0000 C   0  0
    2.9130   -3.1688    0.0000 C   0  0
    2.3108   -1.8125    0.0000 N   0  0
    1.5040   -1.6398    0.0000 N   0  0
    1.4293   -0.8252    0.0000 C   0  0
    0.7145   -0.4125    0.0000 C   0  0
    0.7145    0.4125    0.0000 C   0  0
    0.0000    0.8250    0.0000 C   0  0
   -0.7145    0.4125    0.0000 C   0  0
   -1.4290    0.8250    0.0000 C   0  0
   -2.1435    0.4125    0.0000 C   0  0
   -2.1435   -0.4125    0.0000 C   0  0
   -1.4290   -0.8250    0.0000 C   0  0
   -0.7145   -0.4125    0.0000 C   0  0
    0.0000   -0.8250    0.0000 C   0  0
    2.1728   -0.4850    0.0000 C   0  0
    2.4289    0.2993    0.0000 C   0  0
    1.8786    0.9146    0.0000 N   0  0
    3.2361    0.4697    0.0000 N   0  0
    3.7873   -0.1443    0.0000 C   0  0
    3.5312   -0.9285    0.0000 N   0  0
    2.7239   -1.0989    0.0000 C   0  0
    2.0501    1.4372    0.0000 H   0  0
    1.3403    0.8020    0.0000 H   0  0
  1  2  1  0
  2  3  1  0
  2  4  1  0
  2  5  1  0
  5  6  1  0
  6  7  2  0
  7  8  1  0
  7 18  1  0
  8  9  2  0
  9 10  1  0
 10 11  2  0
 11 12  1  0
 12 13  2  0
 13 14  1  0
 14 15  2  0
 15 16  1  0
 16 11  1  0
 16 17  2  0
 17  8  1  0
 18 19  2  0
 19 20  1  0
 19 21  1  0
 20 25  1  0
 20 26  1  0
 21 22  2  0
 22 23  1  0
 23 24  2  0
 24  5  1  0
 24 18  1  0
M  END
> <CMPD_CHEMBLID>
CHEMBL1231371

> <STANDARD_TYPE>
IC50

> <RELATION>
>

> <STANDARD_VALUE>
1000

> <STANDARD_UNITS>
nM

> <Molecular_Weight>
317.38766

$$$$

  SciTegic11272012012D

 28 31  0  0  0  0            999 V2000
    2.1444   -0.4159    0.0000 C   0  0
    2.8585   -0.8301    0.0000 C   0  0
    3.5744   -0.4193    0.0000 N   0  0
    4.3175   -0.7613    0.0000 C   0  0
    4.8699   -0.1486    0.0000 C   0  0
    4.4579    0.5662    0.0000 N   0  0
    3.6508    0.3952    0.0000 C   0  0
    1.4285   -0.8267    0.0000 O   0  0
    0.7144   -0.4125    0.0000 C   0  0
    0.7144    0.4125    0.0000 C   0  0
    0.0000    0.8250    0.0000 C   0  0
   -0.7144    0.4125    0.0000 C   0  0
   -0.7144   -0.4125    0.0000 C   0  0
   -1.4285   -0.8267    0.0000 N   0  0
   -1.4273   -1.6521    0.0000 C   0  0
   -2.1403   -2.0672    0.0000 N   0  0
   -2.1375   -2.8922    0.0000 C   0  0
   -1.4216   -3.3022    0.0000 C   0  0
   -0.7086   -2.8872    0.0000 C   0  0
   -0.7114   -2.0622    0.0000 N   0  0
    0.0077   -3.2975    0.0000 C   0  0
    0.0119   -4.1225    0.0000 C   0  0
    0.7285   -4.5314    0.0000 C   0  0
    1.4408   -4.1153    0.0000 C   0  0
    1.4367   -3.2903    0.0000 N   0  0
    0.7201   -2.8814    0.0000 C   0  0
    0.0000   -0.8250    0.0000 C   0  0
   -1.9053   -0.5525    0.0000 H   0  0
  1  2  1  0
  1  8  1  0
  2  3  1  0
  3  4  1  0
  4  5  2  0
  5  6  1  0
  6  7  2  0
  7  3  1  0
  8  9  1  0
  9 10  2  0
 10 11  1  0
 11 12  2  0
 12 13  1  0
 13 14  1  0
 13 27  2  0
 14 15  1  0
 14 28  1  0
 15 16  2  0
 16 17  1  0
 17 18  2  0
 18 19  1  0
 19 20  2  0
 19 21  1  0
 20 15  1  0
 21 22  2  0
 22 23  1  0
 23 24  2  0
 24 25  1  0
 25 26  2  0
 26 21  1  0
 27  9  1  0
M  END
> <CMPD_CHEMBLID>
CHEMBL58436

> <STANDARD_TYPE>
IC50

> <RELATION>
=

> <STANDARD_VALUE>
1000

> <STANDARD_UNITS>
nM

> <Molecular_Weight>
358.39652

$$$$

  SciTegic11272012012D

 22 24  0  0  0  0            999 V2000
   -2.9647   -3.7175    0.0000 N   0  0
   -2.1728   -3.9506    0.0000 C   0  0
   -2.0178   -4.5922    0.0000 O   0  0
   -1.5746   -3.3817    0.0000 C   0  0
   -0.7828   -3.6136    0.0000 C   0  0
   -0.1861   -3.0438    0.0000 C   0  0
   -0.3810   -2.2450    0.0000 C   0  0
   -1.1730   -2.0103    0.0000 C   0  0
   -1.7697   -2.5801    0.0000 C   0  0
    0.1713   -1.6316    0.0000 C   0  0
    0.9918   -1.7179    0.0000 C   0  0
    1.3273   -0.9642    0.0000 N   0  0
    0.7145   -0.4125    0.0000 C   0  0
    0.7145    0.4125    0.0000 N   0  0
    0.0000    0.8250    0.0000 C   0  0
   -0.7145    0.4125    0.0000 C   0  0
   -0.7145   -0.4125    0.0000 C   0  0
   -1.2861   -0.7425    0.0000 Cl  0  0
    0.0000   -0.8250    0.0000 C   0  0
    1.8654   -0.8498    0.0000 H   0  0
   -3.3632   -4.0965    0.0000 H   0  0
   -3.0938   -3.1828    0.0000 H   0  0
  1  2  1  0
  1 21  1  0
  1 22  1  0
  2  3  2  0
  2  4  1  0
  4  5  2  0
  5  6  1  0
  6  7  2  0
  7  8  1  0
  7 10  1  0
  8  9  2  0
  9  4  1  0
 10 11  2  0
 11 12  1  0
 12 13  1  0
 12 20  1  0
 13 14  2  0
 14 15  1  0
 15 16  2  0
 16 17  1  0
 17 18  1  0
 17 19  2  0
 19 10  1  0
 19 13  1  0
M  END
> <CMPD_CHEMBLID>
CHEMBL1982711

> <STANDARD_TYPE>
Ki

> <RELATION>
=

> <STANDARD_VALUE>
1000

> <STANDARD_UNITS>
nM

> <Molecular_Weight>
271.7017

$$$$

  SciTegic11272012012D

 20 22  0  0  0  0            999 V2000
   -0.3790   -2.2450    0.0000 N   0  0
    0.1713   -1.6316    0.0000 C   0  0
    0.9918   -1.7178    0.0000 N   0  0
    1.3273   -0.9642    0.0000 O   0  0
    0.7145   -0.4125    0.0000 C   0  0
    0.7145    0.4125    0.0000 C   0  0
    0.0000    0.8250    0.0000 C   0  0
   -0.7145    0.4125    0.0000 C   0  0
   -0.7145   -0.4125    0.0000 C   0  0
   -1.4293   -0.8252    0.0000 C   0  0
   -2.1445   -0.4139    0.0000 C   0  0
   -2.8583   -0.8275    0.0000 C   0  0
   -2.8570   -1.6526    0.0000 C   0  0
   -2.1419   -2.0639    0.0000 C   0  0
   -2.1389   -2.8894    0.0000 O   0  0
   -1.4280   -1.6502    0.0000 C   0  0
    0.0000   -0.8250    0.0000 C   0  0
   -1.6617   -3.1629    0.0000 H   0  0
   -0.2083   -2.7679    0.0000 H   0  0
   -0.9171   -2.1315    0.0000 H   0  0
  1  2  1  0
  1 19  1  0
  1 20  1  0
  2  3  2  0
  3  4  1  0
  4  5  1  0
  5  6  2  0
  6  7  1  0
  7  8  2  0
  8  9  1  0
  9 10  1  0
  9 17  2  0
 10 11  2  0
 11 12  1  0
 12 13  2  0
 13 14  1  0
 14 15  1  0
 14 16  2  0
 15 18  1  0
 16 10  1  0
 17  2  1  0
 17  5  1  0
M  END
> <CMPD_CHEMBLID>
CHEMBL1970340

> <STANDARD_TYPE>
Ki

> <RELATION>
>

> <STANDARD_VALUE>
1000

> <STANDARD_UNITS>
nM

> <Molecular_Weight>
226.2307

$$$$

  SciTegic11272012012D

 33 36  0  0  0  0            999 V2000
    2.1433    0.2500    0.0000 C   0  0
    2.1445   -0.4100    0.0000 C   0  0
    1.4302   -0.8237    0.0000 S   0  0
    0.7145   -0.4125    0.0000 C   0  0
    0.7145    0.4125    0.0000 C   0  0
    0.0000    0.8250    0.0000 C   0  0
   -0.7145    0.4125    0.0000 C   0  0
   -0.7145   -0.4125    0.0000 N   0  0
    0.0000   -0.8250    0.0000 C   0  0
   -0.0017   -1.6504    0.0000 N   0  0
    0.0000    1.6504    0.0000 C   0  0
    0.6667    2.1244    0.0000 C   0  0
    0.4105    2.9086    0.0000 N   0  0
   -0.4145    2.9073    0.0000 N   0  0
   -0.6682    2.1223    0.0000 C   0  0
   -0.9007    3.5743    0.0000 C   0  0
   -0.6245    4.3488    0.0000 C   0  0
   -1.1593    4.9770    0.0000 C   0  0
   -1.9707    4.8280    0.0000 N   0  0
   -2.2474    4.0508    0.0000 C   0  0
   -1.7126    3.4225    0.0000 C   0  0
    2.8602   -0.8213    0.0000 C   0  0
    3.5747   -0.4088    0.0000 C   0  0
    3.5747    0.2512    0.0000 Cl  0  0
    4.2892   -0.8213    0.0000 C   0  0
    4.2892   -1.6463    0.0000 C   0  0
    3.5747   -2.0588    0.0000 C   0  0
    3.5747   -2.7188    0.0000 F   0  0
    2.8602   -1.6463    0.0000 C   0  0
    2.2887   -1.9763    0.0000 Cl  0  0
   -2.3273    5.2468    0.0000 H   0  0
   -0.4784   -1.9248    0.0000 H   0  0
    0.4742   -1.9263    0.0000 H   0  0
  1  2  1  0
  2  3  1  0
  2 22  1  0
  3  4  1  0
  4  5  2  0
  5  6  1  0
  6  7  2  0
  6 11  1  0
  7  8  1  0
  8  9  2  0
  9  4  1  0
  9 10  1  0
 10 32  1  0
 10 33  1  0
 11 12  1  0
 12 13  2  0
 13 14  1  0
 14 15  1  0
 14 16  1  0
 15 11  2  0
 16 17  1  0
 17 18  1  0
 18 19  1  0
 19 20  1  0
 19 31  1  0
 20 21  1  0
 21 16  1  0
 22 23  2  0
 23 24  1  0
 23 25  1  0
 25 26  2  0
 26 27  1  0
 27 28  1  0
 27 29  2  0
 29 22  1  0
 29 30  1  0
M  END
> <CMPD_CHEMBLID>
CHEMBL2442124

> <STANDARD_TYPE>
IC50

> <RELATION>
>

> <STANDARD_VALUE>
1000

> <STANDARD_UNITS>
nM

> <Molecular_Weight>
466.40228

$$$$

  SciTegic11272012012D

 32 35  0  0  0  0            999 V2000
    2.1444   -0.4100    0.0000 N   0  0
    1.4302   -0.8237    0.0000 C   0  0
    1.4313   -1.4837    0.0000 O   0  0
    0.7144   -0.4125    0.0000 C   0  0
    0.7144    0.4125    0.0000 C   0  0
    0.0000    0.8250    0.0000 N   0  0
   -0.7144    0.4125    0.0000 C   0  0
   -1.4986    0.6674    0.0000 N   0  0
   -1.9836    0.0000    0.0000 C   0  0
   -1.4986   -0.6674    0.0000 C   0  0
   -0.7144   -0.4125    0.0000 C   0  0
    0.0000   -0.8250    0.0000 C   0  0
    0.0017   -1.6504    0.0000 N   0  0
   -0.7120   -2.0651    0.0000 C   0  0
   -1.4269   -1.6531    0.0000 C   0  0
   -2.1410   -2.0661    0.0000 C   0  0
   -2.1405   -2.8911    0.0000 N   0  0
   -1.4258   -3.3031    0.0000 C   0  0
   -0.7115   -2.8901    0.0000 C   0  0
   -0.1398   -3.2198    0.0000 F   0  0
   -2.8550   -3.3042    0.0000 C   0  0
   -3.5705   -2.8934    0.0000 C   0  0
   -4.2841   -3.3075    0.0000 C   0  0
   -4.2822   -4.1325    0.0000 C   0  0
   -3.5668   -4.5434    0.0000 C   0  0
   -2.8532   -4.1293    0.0000 N   0  0
   -4.9961   -4.5468    0.0000 C   0  0
   -5.5669   -4.8781    0.0000 N   0  0
    0.4787   -1.9243    0.0000 H   0  0
   -1.6685    1.1905    0.0000 H   0  0
    2.6214   -0.6840    0.0000 H   0  0
    2.1435    0.1400    0.0000 H   0  0
  1  2  1  0
  1 31  1  0
  1 32  1  0
  2  3  2  0
  2  4  1  0
  4  5  2  0
  5  6  1  0
  6  7  2  0
  7  8  1  0
  8  9  1  0
  8 30  1  0
  9 10  2  0
 10 11  1  0
 11  7  1  0
 11 12  2  0
 12  4  1  0
 12 13  1  0
 13 14  1  0
 13 29  1  0
 14 15  1  0
 15 16  1  0
 16 17  1  0
 17 18  1  0
 17 21  1  0
 18 19  1  0
 19 14  1  0
 19 20  1  0
 21 22  2  0
 22 23  1  0
 23 24  2  0
 24 25  1  0
 24 27  1  0
 25 26  2  0
 26 21  1  0
 27 28  3  0
M  END
> <CMPD_CHEMBLID>
CHEMBL3593777

> <STANDARD_TYPE>
IC50

> <RELATION>
>

> <STANDARD_VALUE>
1000

> <STANDARD_UNITS>
nM

> <Molecular_Weight>
379.39092

$$$$

  SciTegic11272012012D

 27 30  0  0  0  0            999 V2000
   -2.0134   -4.5941    0.0000 C   0  0
   -2.1705   -3.9530    0.0000 O   0  0
   -1.5746   -3.3817    0.0000 C   0  0
   -0.7828   -3.6136    0.0000 C   0  0
   -0.1861   -3.0438    0.0000 C   0  0
   -0.3810   -2.2450    0.0000 C   0  0
   -1.1730   -2.0103    0.0000 C   0  0
   -1.7697   -2.5801    0.0000 C   0  0
   -2.5614   -2.3465    0.0000 O   0  0
   -2.7166   -1.7050    0.0000 C   0  0
    0.1713   -1.6316    0.0000 C   0  0
    0.9918   -1.7179    0.0000 N   0  0
    1.3273   -0.9642    0.0000 N   0  0
    2.1348   -0.7925    0.0000 C   0  0
    2.7754   -1.2969    0.0000 C   0  0
    3.4553   -0.8296    0.0000 C   0  0
    3.2211   -0.0386    0.0000 C   0  0
    2.3964   -0.0169    0.0000 C   0  0
    0.7145   -0.4125    0.0000 C   0  0
    0.7145    0.4125    0.0000 N   0  0
    0.0000    0.8250    0.0000 C   0  0
   -0.7145    0.4125    0.0000 N   0  0
   -0.7145   -0.4125    0.0000 C   0  0
   -1.4302   -0.8238    0.0000 N   0  0
    0.0000   -0.8250    0.0000 C   0  0
   -1.9062   -0.5481    0.0000 H   0  0
   -1.4312   -1.3738    0.0000 H   0  0
  1  2  1  0
  2  3  1  0
  3  4  2  0
  4  5  1  0
  5  6  2  0
  6  7  1  0
  6 11  1  0
  7  8  2  0
  8  3  1  0
  8  9  1  0
  9 10  1  0
 11 12  2  0
 12 13  1  0
 13 14  1  0
 13 19  1  0
 14 15  1  0
 15 16  1  0
 16 17  1  0
 17 18  1  0
 18 14  1  0
 19 20  2  0
 20 21  1  0
 21 22  2  0
 22 23  1  0
 23 24  1  0
 23 25  2  0
 24 26  1  0
 24 27  1  0
 25 11  1  0
 25 19  1  0
M  END
> <CMPD_CHEMBLID>
CHEMBL1240553

> <STANDARD_TYPE>
IC50

> <RELATION>
=

> <STANDARD_VALUE>
1000

> <STANDARD_UNITS>
nM

> <Molecular_Weight>
339.39164

$$$$

  SciTegic11272012012D

 25 28  0  0  0  0            999 V2000
    2.2541   -3.0993    0.0000 C   0  0
    2.6434   -2.5664    0.0000 C   0  0
    3.2996   -2.6373    0.0000 C   0  0
    2.3107   -1.8125    0.0000 N   0  0
    1.5040   -1.6398    0.0000 N   0  0
    1.4293   -0.8252    0.0000 C   0  0
    0.7145   -0.4125    0.0000 C   0  0
    0.7145    0.4125    0.0000 C   0  0
    0.0000    0.8250    0.0000 N   0  0
   -0.7145    0.4125    0.0000 C   0  0
   -1.4290    0.8250    0.0000 C   0  0
   -2.1434    0.4125    0.0000 C   0  0
   -2.1434   -0.4125    0.0000 C   0  0
   -1.4290   -0.8250    0.0000 C   0  0
   -0.7145   -0.4125    0.0000 C   0  0
    0.0000   -0.8250    0.0000 C   0  0
    2.1727   -0.4850    0.0000 C   0  0
    2.4288    0.2993    0.0000 C   0  0
    1.8786    0.9146    0.0000 N   0  0
    3.2361    0.4696    0.0000 N   0  0
    3.7872   -0.1443    0.0000 C   0  0
    3.5311   -0.9285    0.0000 N   0  0
    2.7239   -1.0989    0.0000 C   0  0
    2.0501    1.4372    0.0000 H   0  0
    1.3402    0.8020    0.0000 H   0  0
  1  2  1  0
  2  3  1  0
  2  4  1  0
  4  5  1  0
  5  6  2  0
  6  7  1  0
  6 17  1  0
  7  8  2  0
  8  9  1  0
  9 10  2  0
 10 11  1  0
 11 12  2  0
 12 13  1  0
 13 14  2  0
 14 15  1  0
 15 10  1  0
 15 16  2  0
 16  7  1  0
 17 18  2  0
 18 19  1  0
 18 20  1  0
 19 24  1  0
 19 25  1  0
 20 21  2  0
 21 22  1  0
 22 23  2  0
 23  4  1  0
 23 17  1  0
M  END
> <CMPD_CHEMBLID>
CHEMBL1242754

> <STANDARD_TYPE>
IC50

> <RELATION>
=

> <STANDARD_VALUE>
1000

> <STANDARD_UNITS>
nM

> <Molecular_Weight>
304.34914

$$$$

  SciTegic11272012012D

 31 34  0  0  0  0            999 V2000
    1.2861   -0.7425    0.0000 Cl  0  0
    0.7144   -0.4125    0.0000 C   0  0
    0.7144    0.4125    0.0000 C   0  0
    0.0000    0.8250    0.0000 C   0  0
   -0.7144    0.4125    0.0000 C   0  0
   -0.7144   -0.4125    0.0000 C   0  0
    0.0000   -0.8250    0.0000 C   0  0
    0.0000   -1.4850    0.0000 Cl  0  0
   -1.4293    0.8252    0.0000 N   0  0
   -1.5064    1.6395    0.0000 N   0  0
   -2.3137    1.8098    0.0000 C   0  0
   -2.5831    2.4123    0.0000 O   0  0
   -2.7250    1.0947    0.0000 C   0  0
   -3.5443    1.0055    0.0000 C   0  0
   -3.8777    0.2504    0.0000 C   0  0
   -4.6978    0.1600    0.0000 C   0  0
   -5.0295   -0.5954    0.0000 C   0  0
   -4.5412   -1.2604    0.0000 C   0  0
   -3.7211   -1.1700    0.0000 C   0  0
   -3.2312   -1.8343    0.0000 O   0  0
   -2.4109   -1.7427    0.0000 C   0  0
   -1.9209   -2.4070    0.0000 C   0  0
   -1.1009   -2.3167    0.0000 C   0  0
   -0.6125   -2.9816    0.0000 C   0  0
   -0.9442   -3.7370    0.0000 C   0  0
   -1.7643   -3.8274    0.0000 C   0  0
   -2.2526   -3.1624    0.0000 C   0  0
   -3.3894   -0.4146    0.0000 C   0  0
   -2.1721    0.4825    0.0000 C   0  0
   -2.3044   -0.1641    0.0000 O   0  0
   -1.0961    2.0058    0.0000 H   0  0
  1  2  1  0
  2  3  2  0
  3  4  1  0
  4  5  2  0
  5  6  1  0
  5  9  1  0
  6  7  2  0
  7  2  1  0
  7  8  1  0
  9 10  1  0
 10 11  1  0
 10 31  1  0
 11 12  2  0
 11 13  1  0
 13 14  2  0
 13 29  1  0
 14 15  1  0
 15 16  2  0
 16 17  1  0
 17 18  2  0
 18 19  1  0
 19 20  1  0
 19 28  2  0
 20 21  1  0
 21 22  1  0
 22 23  2  0
 23 24  1  0
 24 25  2  0
 25 26  1  0
 26 27  2  0
 27 22  1  0
 28 15  1  0
 29  9  1  0
 29 30  2  0
M  END
> <CMPD_CHEMBLID>
CHEMBL207360

> <STANDARD_TYPE>
Ki

> <RELATION>
=

> <STANDARD_VALUE>
1000

> <STANDARD_UNITS>
nM

> <Molecular_Weight>
439.29074

$$$$

  SciTegic11272012012D

 31 34  0  0  0  0            999 V2000
    1.2861   -0.7425    0.0000 C   0  0
    0.7144   -0.4125    0.0000 C   0  0
    0.7144    0.4125    0.0000 C   0  0
    0.0000    0.8250    0.0000 C   0  0
   -0.7144    0.4125    0.0000 C   0  0
   -0.7144   -0.4125    0.0000 C   0  0
    0.0000   -0.8250    0.0000 C   0  0
   -1.4302    0.8237    0.0000 C   0  0
   -1.4313    1.4837    0.0000 O   0  0
   -2.1444    0.4100    0.0000 N   0  0
   -2.8602    0.8213    0.0000 C   0  0
   -3.5747    0.4088    0.0000 C   0  0
   -4.2892    0.8213    0.0000 C   0  0
   -4.2892    1.6463    0.0000 C   0  0
   -3.5747    2.0588    0.0000 C   0  0
   -3.5731    2.8842    0.0000 N   0  0
   -2.8576    3.2960    0.0000 C   0  0
   -2.8547    4.1210    0.0000 N   0  0
   -2.1388    4.5310    0.0000 C   0  0
   -1.4258    4.1161    0.0000 C   0  0
   -1.4286    3.2911    0.0000 C   0  0
   -2.1445    2.8810    0.0000 N   0  0
   -0.7152    2.8759    0.0000 C   0  0
    0.0014    3.2848    0.0000 C   0  0
    0.7138    2.8687    0.0000 C   0  0
    0.7096    2.0437    0.0000 C   0  0
   -0.0069    1.6348    0.0000 N   0  0
   -0.7193    2.0509    0.0000 C   0  0
   -2.8602    1.6463    0.0000 C   0  0
   -4.0489    3.1600    0.0000 H   0  0
   -2.1435   -0.1400    0.0000 H   0  0
  1  2  1  0
  2  3  2  0
  3  4  1  0
  4  5  2  0
  5  6  1  0
  5  8  1  0
  6  7  2  0
  7  2  1  0
  8  9  2  0
  8 10  1  0
 10 11  1  0
 10 31  1  0
 11 12  2  0
 12 13  1  0
 13 14  2  0
 14 15  1  0
 15 16  1  0
 15 29  2  0
 16 17  1  0
 16 30  1  0
 17 18  2  0
 18 19  1  0
 19 20  2  0
 20 21  1  0
 21 22  2  0
 21 23  1  0
 22 17  1  0
 23 24  2  0
 24 25  1  0
 25 26  2  0
 26 27  1  0
 27 28  2  0
 28 23  1  0
 29 11  1  0
M  END
> <CMPD_CHEMBLID>
CHEMBL59036

> <STANDARD_TYPE>
IC50

> <RELATION>
=

> <STANDARD_VALUE>
1000

> <STANDARD_UNITS>
nM

> <Molecular_Weight>
381.42986

$$$$

  SciTegic11272012012D

 45 50  0  0  0  0            999 V2000
    5.1429   -3.7677    0.0000 C   0  0
    4.9564   -3.1346    0.0000 C   0  0
    4.1545   -2.9408    0.0000 C   0  0
    3.9213   -2.1494    0.0000 C   0  0
    4.4885   -1.5543    0.0000 C   0  0
    5.2920   -1.7456    0.0000 C   0  0
    5.5252   -2.5370    0.0000 C   0  0
    4.3189   -0.7465    0.0000 N   0  0
    4.8688   -0.1314    0.0000 N   0  0
    4.4538    0.5816    0.0000 C   0  0
    3.6474    0.4072    0.0000 C   0  0
    3.5744   -0.4075    0.0000 C   0  0
    2.8602   -0.8213    0.0000 N   0  0
    2.1444   -0.4100    0.0000 C   0  0
    2.1433    0.2500    0.0000 O   0  0
    1.4302   -0.8237    0.0000 N   0  0
    0.7144   -0.4125    0.0000 C   0  0
    0.7144    0.4125    0.0000 C   0  0
    0.0000    0.8250    0.0000 C   0  0
   -0.7144    0.4125    0.0000 C   0  0
   -1.4293    0.8252    0.0000 C   0  0
   -1.4307    1.6502    0.0000 C   0  0
   -2.1458    2.0616    0.0000 C   0  0
   -2.8596    1.6480    0.0000 C   0  0
   -3.5760    2.0581    0.0000 C   0  0
   -4.2896    1.6432    0.0000 N   0  0
   -5.0062    2.0520    0.0000 C   0  0
   -5.7186    1.6359    0.0000 C   0  0
   -5.7144    0.8110    0.0000 O   0  0
   -4.9978    0.4020    0.0000 C   0  0
   -4.2855    0.8182    0.0000 C   0  0
   -2.8583    0.8230    0.0000 N   0  0
   -2.1432    0.4116    0.0000 C   0  0
   -0.7144   -0.4125    0.0000 C   0  0
   -1.4290   -0.8250    0.0000 C   0  0
   -1.4290   -1.6500    0.0000 C   0  0
   -0.7144   -2.0625    0.0000 C   0  0
    0.0000   -1.6500    0.0000 C   0  0
    0.0000   -0.8250    0.0000 C   0  0
    4.7864    1.3355    0.0000 C   0  0
    5.4425    1.4072    0.0000 C   0  0
    4.3964    1.8680    0.0000 C   0  0
    5.0524    1.9395    0.0000 C   0  0
    1.4312   -1.3737    0.0000 H   0  0
    2.8612   -1.3713    0.0000 H   0  0
  1  2  1  0
  2  3  2  0
  3  4  1  0
  4  5  2  0
  5  6  1  0
  5  8  1  0
  6  7  2  0
  7  2  1  0
  8  9  1  0
  9 10  2  0
 10 11  1  0
 10 40  1  0
 11 12  2  0
 12  8  1  0
 12 13  1  0
 13 14  1  0
 13 45  1  0
 14 15  2  0
 14 16  1  0
 16 17  1  0
 16 44  1  0
 17 18  2  0
 18 19  1  0
 19 20  2  0
 20 21  1  0
 20 34  1  0
 21 22  2  0
 22 23  1  0
 23 24  2  0
 24 25  1  0
 24 32  1  0
 25 26  1  0
 26 27  1  0
 27 28  1  0
 28 29  1  0
 29 30  1  0
 30 31  1  0
 31 26  1  0
 32 33  2  0
 33 21  1  0
 34 35  2  0
 35 36  1  0
 36 37  2  0
 37 38  1  0
 38 39  2  0
 39 17  1  0
 39 34  1  0
 40 41  1  0
 40 42  1  0
 40 43  1  0
M  END
> <CMPD_CHEMBLID>
CHEMBL381743

> <STANDARD_TYPE>
IC50

> <RELATION>
=

> <STANDARD_VALUE>
1000

> <STANDARD_UNITS>
nM

> <Molecular_Weight>
574.71522

$$$$

  SciTegic11272012012D

 19 21  0  0  0  0            999 V2000
    1.4302   -0.8238    0.0000 N   0  0
    0.7145   -0.4125    0.0000 C   0  0
    0.7145    0.4125    0.0000 N   0  0
    0.0000    0.8250    0.0000 C   0  0
   -0.7145    0.4125    0.0000 N   0  0
   -0.7145   -0.4125    0.0000 C   0  0
    0.0000   -0.8250    0.0000 C   0  0
   -0.1713   -1.6316    0.0000 C   0  0
   -0.9918   -1.7179    0.0000 C   0  0
   -1.3273   -0.9642    0.0000 N   0  0
   -2.1348   -0.7925    0.0000 C   0  0
   -2.7754   -1.2969    0.0000 C   0  0
   -3.4553   -0.8297    0.0000 C   0  0
   -3.2211   -0.0386    0.0000 C   0  0
   -2.3964   -0.0169    0.0000 C   0  0
    0.3802   -2.2439    0.0000 C   0  0
    0.8219   -2.7343    0.0000 C   0  0
    1.9062   -0.5481    0.0000 H   0  0
    1.4312   -1.3738    0.0000 H   0  0
  1  2  1  0
  1 18  1  0
  1 19  1  0
  2  3  2  0
  3  4  1  0
  4  5  2  0
  5  6  1  0
  6  7  2  0
  7  2  1  0
  7  8  1  0
  8  9  2  0
  8 16  1  0
  9 10  1  0
 10  6  1  0
 10 11  1  0
 11 12  1  0
 12 13  1  0
 13 14  1  0
 14 15  1  0
 15 11  1  0
 16 17  3  0
M  END
> <CMPD_CHEMBLID>
CHEMBL1993877

> <STANDARD_TYPE>
Ki

> <RELATION>
=

> <STANDARD_VALUE>
1000

> <STANDARD_UNITS>
nM

> <Molecular_Weight>
226.27706

$$$$

  SciTegic11272012012D

 28 30  0  0  0  0            999 V2000
    1.4276   -1.4867    0.0000 C   0  0
    1.4285   -0.8267    0.0000 N   0  0
    0.7145   -0.4125    0.0000 C   0  0
    0.7145    0.4125    0.0000 N   0  0
    0.0000    0.8250    0.0000 C   0  0
   -0.7145    0.4125    0.0000 C   0  0
   -0.7145   -0.4125    0.0000 C   0  0
    0.0000   -0.8250    0.0000 N   0  0
   -1.4293   -0.8252    0.0000 C   0  0
   -1.5039   -1.6399    0.0000 C   0  0
   -2.3106   -1.8127    0.0000 C   0  0
   -2.6430   -2.5667    0.0000 C   0  0
   -3.2992   -2.6378    0.0000 O   0  0
   -2.1558   -3.2330    0.0000 N   0  0
   -2.7242   -1.0988    0.0000 C   0  0
   -2.1731   -0.4848    0.0000 N   0  0
   -3.5452   -1.0138    0.0000 C   0  0
   -3.8222   -0.2357    0.0000 C   0  0
   -4.6342   -0.0893    0.0000 C   0  0
   -4.8575    0.5318    0.0000 Cl  0  0
   -5.1669   -0.7192    0.0000 C   0  0
   -4.8878   -1.4955    0.0000 C   0  0
   -4.0759   -1.6420    0.0000 C   0  0
   -3.8524   -2.2630    0.0000 C   0  0
   -2.2852    0.0536    0.0000 H   0  0
   -2.3776   -3.7363    0.0000 H   0  0
   -1.6090   -3.1737    0.0000 H   0  0
    1.9053   -0.5525    0.0000 H   0  0
  1  2  1  0
  2  3  1  0
  2 28  1  0
  3  4  2  0
  4  5  1  0
  5  6  2  0
  6  7  1  0
  7  8  2  0
  7  9  1  0
  8  3  1  0
  9 10  2  0
 10 11  1  0
 11 12  1  0
 11 15  2  0
 12 13  2  0
 12 14  1  0
 14 26  1  0
 14 27  1  0
 15 16  1  0
 15 17  1  0
 16  9  1  0
 16 25  1  0
 17 18  2  0
 18 19  1  0
 19 20  1  0
 19 21  2  0
 21 22  1  0
 22 23  2  0
 23 17  1  0
 23 24  1  0
M  END
> <CMPD_CHEMBLID>
CHEMBL3330118

> <STANDARD_TYPE>
IC50

> <RELATION>
=

> <STANDARD_VALUE>
1010

> <STANDARD_UNITS>
nM

> <Molecular_Weight>
341.79484

$$$$

  SciTegic11272012012D

 32 35  0  0  0  0            999 V2000
    1.4302   -0.8237    0.0000 O   0  0
    0.7144   -0.4125    0.0000 C   0  0
    0.7144    0.4125    0.0000 C   0  0
    0.0000    0.8250    0.0000 C   0  0
   -0.0017    1.6504    0.0000 O   0  0
   -0.7171    2.0622    0.0000 C   0  0
   -0.7188    2.8876    0.0000 C   0  0
   -0.1478    3.2186    0.0000 O   0  0
   -1.4343    3.2993    0.0000 N   0  0
   -1.4360    4.1248    0.0000 C   0  0
   -2.1505    4.5373    0.0000 C   0  0
   -2.1505    5.3623    0.0000 C   0  0
   -1.4361    5.7748    0.0000 C   0  0
   -0.7215    5.3623    0.0000 C   0  0
   -0.1500    5.6923    0.0000 Br  0  0
   -0.7215    4.5373    0.0000 C   0  0
   -0.7144    0.4125    0.0000 C   0  0
   -0.7144   -0.4125    0.0000 C   0  0
   -1.4290   -0.8250    0.0000 O   0  0
   -1.4290   -1.6500    0.0000 C   0  0
   -0.7144   -2.0625    0.0000 C   0  0
    0.0000   -1.6500    0.0000 C   0  0
    0.5716   -1.9800    0.0000 O   0  0
    0.0000   -0.8250    0.0000 C   0  0
   -2.1437   -2.0627    0.0000 C   0  0
   -2.8590   -1.6514    0.0000 C   0  0
   -3.5727   -2.0650    0.0000 C   0  0
   -3.5714   -2.8900    0.0000 C   0  0
   -2.8563   -3.3014    0.0000 C   0  0
   -2.1425   -2.8878    0.0000 C   0  0
   -1.9101    3.0235    0.0000 H   0  0
    1.9061   -0.5481    0.0000 H   0  0
  1  2  1  0
  1 32  1  0
  2  3  2  0
  3  4  1  0
  4  5  1  0
  4 17  2  0
  5  6  1  0
  6  7  1  0
  7  8  2  0
  7  9  1  0
  9 10  1  0
  9 31  1  0
 10 11  2  0
 11 12  1  0
 12 13  2  0
 13 14  1  0
 14 15  1  0
 14 16  2  0
 16 10  1  0
 17 18  1  0
 18 19  1  0
 19 20  1  0
 20 21  2  0
 20 25  1  0
 21 22  1  0
 22 23  2  0
 22 24  1  0
 24  2  1  0
 24 18  2  0
 25 26  2  0
 26 27  1  0
 27 28  2  0
 28 29  1  0
 29 30  2  0
 30 25  1  0
M  END
> <CMPD_CHEMBLID>
CHEMBL2408502

> <STANDARD_TYPE>
IC50

> <RELATION>
=

> <STANDARD_VALUE>
1040

> <STANDARD_UNITS>
nM

> <Molecular_Weight>
466.28084

$$$$

  SciTegic11272012012D

 28 31  0  0  0  0            999 V2000
    1.4302   -0.8237    0.0000 N   0  0
    0.7145   -0.4125    0.0000 C   0  0
    0.7145    0.4125    0.0000 N   0  0
    0.0000    0.8250    0.0000 C   0  0
   -0.7145    0.4125    0.0000 N   0  0
   -0.7145   -0.4125    0.0000 C   0  0
    0.0000   -0.8250    0.0000 C   0  0
   -0.1713   -1.6316    0.0000 C   0  0
   -0.9918   -1.7178    0.0000 N   0  0
   -1.3273   -0.9642    0.0000 N   0  0
   -2.1337   -0.7943    0.0000 C   0  0
   -2.6853   -1.4085    0.0000 C   0  0
   -2.5031   -2.2059    0.0000 C   0  0
   -3.2162   -2.6208    0.0000 C   0  0
   -3.8311   -2.0708    0.0000 C   0  0
   -3.4981   -1.3160    0.0000 N   0  0
    0.3811   -2.2450    0.0000 C   0  0
    1.1959   -2.1345    0.0000 C   0  0
    1.7002   -2.7874    0.0000 C   0  0
    1.3870   -3.5506    0.0000 C   0  0
    1.7905   -4.0729    0.0000 Cl  0  0
    0.5694   -3.6610    0.0000 C   0  0
    0.2544   -4.4240    0.0000 O   0  0
    0.0651   -3.0081    0.0000 C   0  0
   -0.2907   -4.4968    0.0000 H   0  0
   -3.7718   -0.8389    0.0000 H   0  0
    1.9062   -0.5481    0.0000 H   0  0
    1.4312   -1.3738    0.0000 H   0  0
  1  2  1  0
  1 27  1  0
  1 28  1  0
  2  3  2  0
  3  4  1  0
  4  5  2  0
  5  6  1  0
  6  7  2  0
  7  2  1  0
  7  8  1  0
  8  9  2  0
  8 17  1  0
  9 10  1  0
 10  6  1  0
 10 11  1  0
 11 12  1  0
 12 13  1  0
 13 14  1  0
 14 15  1  0
 15 16  1  0
 16 12  1  0
 16 26  1  0
 17 18  2  0
 18 19  1  0
 19 20  2  0
 20 21  1  0
 20 22  1  0
 22 23  1  0
 22 24  2  0
 23 25  1  0
 24 17  1  0
M  END
> <CMPD_CHEMBLID>
CHEMBL1241769

> <STANDARD_TYPE>
IC50

> <RELATION>
=

> <STANDARD_VALUE>
1044

> <STANDARD_UNITS>
nM

> <Molecular_Weight>
344.79878

$$$$

  SciTegic11272012012D

 27 30  0  0  0  0            999 V2000
    2.5619   -3.0003    0.0000 C   0  0
    2.2308   -2.4294    0.0000 O   0  0
    1.4053   -2.4306    0.0000 C   0  0
    1.0763   -3.0028    0.0000 O   0  0
    0.9918   -1.7178    0.0000 C   0  0
    1.3273   -0.9642    0.0000 C   0  0
    0.7145   -0.4125    0.0000 C   0  0
    0.7145    0.4125    0.0000 C   0  0
    0.0000    0.8250    0.0000 C   0  0
   -0.0017    1.6505    0.0000 N   0  0
   -0.7172    2.0622    0.0000 C   0  0
   -0.7189    2.8876    0.0000 C   0  0
   -1.4334    3.3002    0.0000 C   0  0
   -1.4334    4.1252    0.0000 C   0  0
   -0.7189    4.5377    0.0000 C   0  0
   -0.5476    5.3443    0.0000 C   0  0
    0.2729    5.4305    0.0000 C   0  0
    0.6084    4.6769    0.0000 N   0  0
   -0.0044    4.1252    0.0000 C   0  0
   -0.0044    3.3002    0.0000 C   0  0
   -0.7145    0.4125    0.0000 C   0  0
   -0.7145   -0.4125    0.0000 N   0  0
    0.0000   -0.8250    0.0000 C   0  0
    0.1713   -1.6316    0.0000 N   0  0
   -0.1967   -2.0403    0.0000 H   0  0
    1.1464    4.5625    0.0000 H   0  0
    0.4741    1.9263    0.0000 H   0  0
  1  2  1  0
  2  3  1  0
  3  4  2  0
  3  5  1  0
  5  6  2  0
  6  7  1  0
  7  8  2  0
  8  9  1  0
  9 10  1  0
  9 21  2  0
 10 11  1  0
 10 27  1  0
 11 12  1  0
 12 13  2  0
 13 14  1  0
 14 15  2  0
 15 16  1  0
 16 17  2  0
 17 18  1  0
 18 19  1  0
 18 26  1  0
 19 15  1  0
 19 20  2  0
 20 12  1  0
 21 22  1  0
 22 23  2  0
 23  7  1  0
 23 24  1  0
 24  5  1  0
 24 25  1  0
M  END
> <CMPD_CHEMBLID>
CHEMBL3347420

> <STANDARD_TYPE>
IC50

> <RELATION>
=

> <STANDARD_VALUE>
1047

> <STANDARD_UNITS>
nM

> <Molecular_Weight>
320.34524

$$$$

  SciTegic11272012012D

 38 41  0  0  0  0            999 V2000
    2.7135   -1.7373    0.0000 C   0  0
    2.1413   -2.0663    0.0000 N   0  0
    2.1401   -2.8918    0.0000 C   0  0
    2.8542   -3.3060    0.0000 O   0  0
    1.4273   -1.6521    0.0000 N   0  0
    1.4285   -0.8267    0.0000 N   0  0
    0.7144   -0.4125    0.0000 C   0  0
    0.7144    0.4125    0.0000 C   0  0
    0.0000    0.8250    0.0000 C   0  0
   -0.7144    0.4125    0.0000 C   0  0
   -0.7144   -0.4125    0.0000 C   0  0
    0.0000   -0.8250    0.0000 C   0  0
   -1.4302    0.8237    0.0000 C   0  0
   -1.4313    1.4837    0.0000 O   0  0
   -2.1444    0.4100    0.0000 N   0  0
   -2.8601    0.8213    0.0000 C   0  0
   -3.5746    0.4088    0.0000 C   0  0
   -4.2892    0.8213    0.0000 C   0  0
   -4.2892    1.6463    0.0000 C   0  0
   -4.8608    1.9762    0.0000 C   0  0
   -3.5747    2.0587    0.0000 C   0  0
   -3.5731    2.8842    0.0000 N   0  0
   -2.8576    3.2960    0.0000 C   0  0
   -2.8547    4.1210    0.0000 N   0  0
   -2.1388    4.5310    0.0000 C   0  0
   -1.4258    4.1161    0.0000 C   0  0
   -1.4286    3.2911    0.0000 C   0  0
   -2.1445    2.8810    0.0000 N   0  0
   -0.7152    2.8759    0.0000 C   0  0
    0.0014    3.2848    0.0000 C   0  0
    0.7138    2.8687    0.0000 C   0  0
    0.7096    2.0437    0.0000 C   0  0
   -0.0069    1.6348    0.0000 N   0  0
   -0.7193    2.0509    0.0000 C   0  0
   -2.8602    1.6463    0.0000 C   0  0
   -4.0489    3.1600    0.0000 H   0  0
   -2.1435   -0.1400    0.0000 H   0  0
    2.8534   -3.8560    0.0000 H   0  0
  1  2  1  0
  2  3  1  0
  2  5  1  0
  3  4  1  0
  4 38  1  0
  5  6  2  0
  6  7  1  0
  7  8  2  0
  8  9  1  0
  9 10  2  0
 10 11  1  0
 10 13  1  0
 11 12  2  0
 12  7  1  0
 13 14  2  0
 13 15  1  0
 15 16  1  0
 15 37  1  0
 16 17  2  0
 17 18  1  0
 18 19  2  0
 19 20  1  0
 19 21  1  0
 21 22  1  0
 21 35  2  0
 22 23  1  0
 22 36  1  0
 23 24  2  0
 24 25  1  0
 25 26  2  0
 26 27  1  0
 27 28  2  0
 27 29  1  0
 28 23  1  0
 29 30  2  0
 30 31  1  0
 31 32  2  0
 32 33  1  0
 33 34  2  0
 34 29  1  0
 35 16  1  0
M  END
> <CMPD_CHEMBLID>
CHEMBL230286

> <STANDARD_TYPE>
IC50

> <RELATION>
=

> <STANDARD_VALUE>
1057

> <STANDARD_UNITS>
nM

> <Molecular_Weight>
468.51046

$$$$

  SciTegic11272012012D

 29 32  0  0  0  0            999 V2000
    1.4276   -1.4867    0.0000 C   0  0
    1.4285   -0.8267    0.0000 S   0  0
    0.7144   -0.4125    0.0000 C   0  0
    0.7144    0.4125    0.0000 N   0  0
    0.0000    0.8250    0.0000 C   0  0
    0.0017    1.6504    0.0000 N   0  0
    0.7171    2.0622    0.0000 C   0  0
    0.7201    2.8872    0.0000 C   0  0
    1.4359    3.2972    0.0000 C   0  0
    2.1490    2.8823    0.0000 C   0  0
    2.1461    2.0573    0.0000 C   0  0
    2.7166    1.7253    0.0000 Br  0  0
    1.4302    1.6472    0.0000 C   0  0
   -0.7144    0.4125    0.0000 C   0  0
   -1.4986    0.6674    0.0000 C   0  0
   -1.9836    0.0000    0.0000 N   0  0
   -1.4986   -0.6674    0.0000 N   0  0
   -1.7547   -1.4507    0.0000 C   0  0
   -2.5623   -1.6213    0.0000 C   0  0
   -3.0032   -1.1301    0.0000 C   0  0
   -2.8189   -2.4059    0.0000 C   0  0
   -3.6259   -2.5776    0.0000 C   0  0
   -3.8807   -3.3622    0.0000 C   0  0
   -3.3285   -3.9752    0.0000 C   0  0
   -2.5216   -3.8036    0.0000 C   0  0
   -2.2668   -3.0189    0.0000 C   0  0
   -0.7144   -0.4125    0.0000 C   0  0
    0.0000   -0.8250    0.0000 N   0  0
   -0.4742    1.9263    0.0000 H   0  0
  1  2  1  0
  2  3  1  0
  3  4  2  0
  4  5  1  0
  5  6  1  0
  5 14  2  0
  6  7  1  0
  6 29  1  0
  7  8  2  0
  8  9  1  0
  9 10  2  0
 10 11  1  0
 11 12  1  0
 11 13  2  0
 13  7  1  0
 14 15  1  0
 15 16  2  0
 16 17  1  0
 17 18  1  0
 17 27  1  0
 18 19  1  0
 19 20  1  0
 19 21  1  0
 21 22  2  0
 22 23  1  0
 23 24  2  0
 24 25  1  0
 25 26  2  0
 26 21  1  0
 27 14  1  0
 27 28  2  0
 28  3  1  0
M  END
> <CMPD_CHEMBLID>
CHEMBL1836680

> <STANDARD_TYPE>
Ki

> <RELATION>
=

> <STANDARD_VALUE>
1070

> <STANDARD_UNITS>
nM

> <Molecular_Weight>
454.386

$$$$

  SciTegic11272012012D

 32 34  0  0  0  0            999 V2000
    1.0529   -2.9956    0.0000 N   0  0
    0.8876   -2.1868    0.0000 C   0  0
    0.2614   -1.9781    0.0000 O   0  0
    1.5039   -1.6399    0.0000 C   0  0
    2.3106   -1.8126    0.0000 C   0  0
    2.7243   -1.0988    0.0000 C   0  0
    2.1732   -0.4848    0.0000 N   0  0
    1.4293   -0.8252    0.0000 C   0  0
    0.7145   -0.4125    0.0000 C   0  0
    0.7145    0.4125    0.0000 C   0  0
    0.0000    0.8250    0.0000 C   0  0
   -0.0017    1.6505    0.0000 O   0  0
   -0.7172    2.0622    0.0000 C   0  0
   -0.7185    2.7222    0.0000 F   0  0
   -1.2882    1.7312    0.0000 F   0  0
   -1.2894    2.3911    0.0000 F   0  0
   -0.7145    0.4125    0.0000 C   0  0
   -0.7145   -0.4125    0.0000 C   0  0
    0.0000   -0.8250    0.0000 C   0  0
    0.0000   -1.4850    0.0000 Cl  0  0
    3.5453   -1.0138    0.0000 C   0  0
    4.0759   -1.6420    0.0000 C   0  0
    4.8878   -1.4955    0.0000 C   0  0
    5.1670   -0.7191    0.0000 N   0  0
    4.6342   -0.0893    0.0000 C   0  0
    4.9119    0.6881    0.0000 N   0  0
    3.8223   -0.2357    0.0000 N   0  0
    4.5561    1.1076    0.0000 H   0  0
    5.4530    0.7867    0.0000 H   0  0
    2.2852    0.0537    0.0000 H   0  0
    0.6415   -3.3606    0.0000 H   0  0
    1.5747   -3.1694    0.0000 H   0  0
  1  2  1  0
  1 31  1  0
  1 32  1  0
  2  3  2  0
  2  4  1  0
  4  5  1  0
  5  6  2  0
  6  7  1  0
  6 21  1  0
  7  8  1  0
  7 30  1  0
  8  4  2  0
  8  9  1  0
  9 10  2  0
 10 11  1  0
 11 12  1  0
 11 17  2  0
 12 13  1  0
 13 14  1  0
 13 15  1  0
 13 16  1  0
 17 18  1  0
 18 19  2  0
 19  9  1  0
 19 20  1  0
 21 22  2  0
 22 23  1  0
 23 24  2  0
 24 25  1  0
 25 26  1  0
 25 27  2  0
 26 28  1  0
 26 29  1  0
 27 21  1  0
M  END
> <CMPD_CHEMBLID>
CHEMBL3330126

> <STANDARD_TYPE>
IC50

> <RELATION>
=

> <STANDARD_VALUE>
1100

> <STANDARD_UNITS>
nM

> <Molecular_Weight>
397.73905

$$$$

  SciTegic11272012012D

 36 39  0  0  0  0            999 V2000
    2.1404   -2.7263    0.0000 C   0  0
    2.1413   -2.0663    0.0000 C   0  0
    2.7135   -1.7373    0.0000 C   0  0
    1.4273   -1.6521    0.0000 N   0  0
    1.4285   -0.8267    0.0000 C   0  0
    0.7144   -0.4125    0.0000 C   0  0
    0.7144    0.4125    0.0000 C   0  0
    0.0000    0.8250    0.0000 C   0  0
   -0.7144    0.4125    0.0000 C   0  0
   -1.4302    0.8237    0.0000 N   0  0
   -2.1444    0.4100    0.0000 C   0  0
   -2.8889    0.7490    0.0000 C   0  0
   -3.4388    0.1340    0.0000 C   0  0
   -3.0238   -0.5791    0.0000 N   0  0
   -2.2174   -0.4047    0.0000 N   0  0
   -4.2600    0.2174    0.0000 C   0  0
   -4.6521    0.9401    0.0000 C   0  0
   -5.4768    0.9615    0.0000 C   0  0
   -5.9077    0.2580    0.0000 C   0  0
   -5.5138   -0.4669    0.0000 C   0  0
   -4.6891   -0.4883    0.0000 C   0  0
   -6.7328    0.2794    0.0000 C   0  0
   -7.1626   -0.4248    0.0000 C   0  0
   -7.9874   -0.4047    0.0000 C   0  0
   -8.3824    0.3195    0.0000 C   0  0
   -9.2076    0.3413    0.0000 O   0  0
   -7.9527    1.0238    0.0000 C   0  0
   -7.1279    1.0037    0.0000 C   0  0
   -6.6994    1.7092    0.0000 O   0  0
   -0.7144   -0.4125    0.0000 C   0  0
    0.0000   -0.8250    0.0000 C   0  0
   -6.9634    2.1917    0.0000 H   0  0
   -9.4702    0.8246    0.0000 H   0  0
   -3.2458   -1.0823    0.0000 H   0  0
   -1.4312    1.3737    0.0000 H   0  0
    0.9505   -1.9263    0.0000 H   0  0
  1  2  1  0
  2  3  1  0
  2  4  1  0
  4  5  1  0
  4 36  1  0
  5  6  1  0
  6  7  2  0
  7  8  1  0
  8  9  2  0
  9 10  1  0
  9 30  1  0
 10 11  1  0
 10 35  1  0
 11 12  1  0
 12 13  2  0
 13 14  1  0
 13 16  1  0
 14 15  1  0
 14 34  1  0
 15 11  2  0
 16 17  2  0
 17 18  1  0
 18 19  2  0
 19 20  1  0
 19 22  1  0
 20 21  2  0
 21 16  1  0
 22 23  2  0
 23 24  1  0
 24 25  2  0
 25 26  1  0
 25 27  1  0
 26 33  1  0
 27 28  2  0
 28 22  1  0
 28 29  1  0
 29 32  1  0
 30 31  2  0
 31  6  1  0
M  END
> <CMPD_CHEMBLID>
CHEMBL398606

> <STANDARD_TYPE>
IC50

> <RELATION>
=

> <STANDARD_VALUE>
1100

> <STANDARD_UNITS>
nM

> <Molecular_Weight>
414.49954

$$$$

  SciTegic11272012012D

 25 27  0  0  0  0            999 V2000
   -0.1742   -2.8725    0.0000 C   0  0
   -0.3790   -2.2450    0.0000 C   0  0
   -1.0247   -2.1088    0.0000 C   0  0
    0.1713   -1.6316    0.0000 N   0  0
    0.9918   -1.7179    0.0000 N   0  0
    1.3273   -0.9642    0.0000 C   0  0
    2.1348   -0.7925    0.0000 C   0  0
    2.7291   -1.3607    0.0000 C   0  0
    3.5209   -1.1288    0.0000 C   0  0
    3.7159   -0.3272    0.0000 C   0  0
    4.5082   -0.0952    0.0000 C   0  0
    5.1416    0.0903    0.0000 N   0  0
    3.1193    0.2426    0.0000 C   0  0
    3.3128    1.0450    0.0000 O   0  0
    2.3275    0.0107    0.0000 C   0  0
    0.7145   -0.4125    0.0000 C   0  0
    0.7145    0.4125    0.0000 C   0  0
    1.4285    0.8267    0.0000 N   0  0
    0.0000    0.8250    0.0000 N   0  0
   -0.7145    0.4125    0.0000 C   0  0
   -0.7145   -0.4125    0.0000 N   0  0
    0.0000   -0.8250    0.0000 C   0  0
    1.4277    1.3767    0.0000 H   0  0
    1.9053    0.5525    0.0000 H   0  0
    2.9145    1.4243    0.0000 H   0  0
  1  2  1  0
  2  3  1  0
  2  4  1  0
  4  5  1  0
  5  6  2  0
  6  7  1  0
  6 16  1  0
  7  8  2  0
  8  9  1  0
  9 10  2  0
 10 11  1  0
 10 13  1  0
 11 12  3  0
 13 14  1  0
 13 15  2  0
 14 25  1  0
 15  7  1  0
 16 17  2  0
 17 18  1  0
 17 19  1  0
 18 23  1  0
 18 24  1  0
 19 20  2  0
 20 21  1  0
 21 22  2  0
 22  4  1  0
 22 16  1  0
M  END
> <CMPD_CHEMBLID>
CHEMBL1241944

> <STANDARD_TYPE>
IC50

> <RELATION>
=

> <STANDARD_VALUE>
1100

> <STANDARD_UNITS>
nM

> <Molecular_Weight>
294.31126

$$$$

  SciTegic11272012012D

 30 33  0  0  0  0            999 V2000
    0.5229   -3.1659    0.0000 Cl  0  0
   -0.1229   -3.0297    0.0000 C   0  0
   -0.3789   -2.2450    0.0000 C   0  0
    0.1713   -1.6316    0.0000 N   0  0
    0.9918   -1.7178    0.0000 N   0  0
    1.3273   -0.9641    0.0000 C   0  0
    0.7144   -0.4125    0.0000 C   0  0
    0.7144    0.4125    0.0000 C   0  0
    1.4285    0.8267    0.0000 N   0  0
    1.4273    1.6521    0.0000 C   0  0
    2.1413    2.0663    0.0000 C   0  0
    2.1413    2.8914    0.0000 C   0  0
    2.8558    3.3039    0.0000 C   0  0
    3.5703    2.8914    0.0000 C   0  0
    4.1418    3.2215    0.0000 Cl  0  0
    3.5703    2.0664    0.0000 C   0  0
    4.1419    1.7365    0.0000 Cl  0  0
    2.8559    1.6539    0.0000 C   0  0
    0.0000    0.8250    0.0000 N   0  0
   -0.7144    0.4125    0.0000 C   0  0
   -0.7144   -0.4125    0.0000 N   0  0
    0.0000   -0.8250    0.0000 C   0  0
   -0.6741   -3.6442    0.0000 C   0  0
   -0.4193   -4.4289    0.0000 C   0  0
   -0.9714   -5.0419    0.0000 C   0  0
   -1.7784   -4.8702    0.0000 C   0  0
   -2.2201   -5.3606    0.0000 Br  0  0
   -2.0332   -4.0856    0.0000 C   0  0
   -1.4810   -3.4726    0.0000 C   0  0
    1.9053    0.5525    0.0000 H   0  0
  1  2  1  0
  2  3  1  0
  2 23  1  0
  3  4  1  0
  4  5  1  0
  5  6  2  0
  6  7  1  0
  7  8  2  0
  8  9  1  0
  8 19  1  0
  9 10  1  0
  9 30  1  0
 10 11  1  0
 11 12  2  0
 12 13  1  0
 13 14  2  0
 14 15  1  0
 14 16  1  0
 16 17  1  0
 16 18  2  0
 18 11  1  0
 19 20  2  0
 20 21  1  0
 21 22  2  0
 22  4  1  0
 22  7  1  0
 23 24  2  0
 24 25  1  0
 25 26  2  0
 26 27  1  0
 26 28  1  0
 28 29  2  0
 29 23  1  0
M  END
> <CMPD_CHEMBLID>
CHEMBL2397808

> <STANDARD_TYPE>
Ki

> <RELATION>
=

> <STANDARD_VALUE>
1100

> <STANDARD_UNITS>
nM

> <Molecular_Weight>
511.6296

$$$$

  SciTegic11272012012D

 33 36  0  0  0  0            999 V2000
    1.4276   -1.4867    0.0000 C   0  0
    1.4285   -0.8267    0.0000 S   0  0
    0.7144   -0.4125    0.0000 C   0  0
    0.7144    0.4125    0.0000 C   0  0
    0.0000    0.8250    0.0000 C   0  0
   -0.7144    0.4125    0.0000 C   0  0
   -0.7144   -0.4125    0.0000 C   0  0
    0.0000   -0.8250    0.0000 C   0  0
   -1.4285   -0.8267    0.0000 C   0  0
   -2.0006   -0.4977    0.0000 O   0  0
   -1.4273   -1.6521    0.0000 N   0  0
   -2.1413   -2.0663    0.0000 C   0  0
   -2.1414   -2.8913    0.0000 C   0  0
   -2.8558   -3.3039    0.0000 C   0  0
   -3.5703   -2.8914    0.0000 C   0  0
   -4.1419   -3.2214    0.0000 C   0  0
   -3.5703   -2.0664    0.0000 C   0  0
   -4.2843   -1.6523    0.0000 N   0  0
   -4.2832   -0.8268    0.0000 C   0  0
   -4.9963   -0.4118    0.0000 N   0  0
   -4.9934    0.4132    0.0000 C   0  0
   -4.2775    0.8232    0.0000 C   0  0
   -3.5644    0.4083    0.0000 C   0  0
   -3.5673   -0.4167    0.0000 N   0  0
   -2.8482    0.8186    0.0000 C   0  0
   -2.8440    1.6436    0.0000 C   0  0
   -2.1275    2.0525    0.0000 C   0  0
   -1.4151    1.6364    0.0000 C   0  0
   -1.4192    0.8114    0.0000 N   0  0
   -2.1358    0.4025    0.0000 C   0  0
   -2.8559   -1.6539    0.0000 C   0  0
   -4.7611   -1.9264    0.0000 H   0  0
   -0.9505   -1.9263    0.0000 H   0  0
  1  2  1  0
  2  3  1  0
  3  4  2  0
  4  5  1  0
  5  6  2  0
  6  7  1  0
  7  8  2  0
  7  9  1  0
  8  3  1  0
  9 10  2  0
  9 11  1  0
 11 12  1  0
 11 33  1  0
 12 13  2  0
 13 14  1  0
 14 15  2  0
 15 16  1  0
 15 17  1  0
 17 18  1  0
 17 31  2  0
 18 19  1  0
 18 32  1  0
 19 20  2  0
 20 21  1  0
 21 22  2  0
 22 23  1  0
 23 24  2  0
 23 25  1  0
 24 19  1  0
 25 26  2  0
 26 27  1  0
 27 28  2  0
 28 29  1  0
 29 30  2  0
 30 25  1  0
 31 12  1  0
M  END
> <CMPD_CHEMBLID>
CHEMBL1923082

> <STANDARD_TYPE>
IC50

> <RELATION>
=

> <STANDARD_VALUE>
1100

> <STANDARD_UNITS>
nM

> <Molecular_Weight>
427.52144

$$$$

  SciTegic11272012012D

 38 40  0  0  0  0            999 V2000
    2.1433    0.2500    0.0000 C   0  0
    2.1445   -0.4100    0.0000 C   0  0
    1.4302   -0.8237    0.0000 O   0  0
    0.7145   -0.4125    0.0000 C   0  0
    0.7145    0.4125    0.0000 C   0  0
    0.0000    0.8250    0.0000 C   0  0
   -0.7145    0.4125    0.0000 C   0  0
   -0.7145   -0.4125    0.0000 C   0  0
    0.0000   -0.8250    0.0000 C   0  0
   -0.0017   -1.6505    0.0000 C   0  0
    0.5693   -1.9815    0.0000 O   0  0
   -0.7172   -2.0622    0.0000 N   0  0
    0.0000    1.6505    0.0000 C   0  0
   -0.7151    2.0619    0.0000 C   0  0
   -0.7164    2.8869    0.0000 C   0  0
   -0.0026    3.3005    0.0000 C   0  0
    0.7125    2.8891    0.0000 N   0  0
    0.7138    2.0641    0.0000 C   0  0
    1.4302    1.6540    0.0000 N   0  0
   -1.4319    3.2984    0.0000 C   0  0
   -2.1752    2.9569    0.0000 C   0  0
   -2.7273    3.5700    0.0000 C   0  0
   -3.5470    3.4856    0.0000 C   0  0
   -4.0312    4.1541    0.0000 N   0  0
   -4.6878    4.0864    0.0000 C   0  0
   -3.7617    4.7565    0.0000 C   0  0
   -2.3148    4.2844    0.0000 C   0  0
   -1.5078    4.1130    0.0000 S   0  0
    2.8602   -0.8213    0.0000 C   0  0
    3.5745   -0.4075    0.0000 C   0  0
    4.2902   -0.8188    0.0000 C   0  0
    4.8614   -0.4880    0.0000 F   0  0
    4.8623   -1.1479    0.0000 F   0  0
    4.2914   -1.4788    0.0000 F   0  0
    1.9057    1.9305    0.0000 H   0  0
    1.4321    1.1040    0.0000 H   0  0
   -0.7183   -2.6122    0.0000 H   0  0
   -1.1930   -1.7864    0.0000 H   0  0
  1  2  1  0
  2  3  1  0
  2 29  1  0
  3  4  1  0
  4  5  2  0
  5  6  1  0
  6  7  2  0
  6 13  1  0
  7  8  1  0
  8  9  2  0
  9  4  1  0
  9 10  1  0
 10 11  2  0
 10 12  1  0
 12 37  1  0
 12 38  1  0
 13 14  2  0
 14 15  1  0
 15 16  2  0
 15 20  1  0
 16 17  1  0
 17 18  2  0
 18 13  1  0
 18 19  1  0
 19 35  1  0
 19 36  1  0
 20 21  2  0
 21 22  1  0
 22 23  1  0
 22 27  2  0
 23 24  1  0
 24 25  1  0
 24 26  1  0
 27 28  1  0
 28 20  1  0
 29 30  2  0
 30 31  1  0
 31 32  1  0
 31 33  1  0
 31 34  1  0
M  END
> <CMPD_CHEMBLID>
CHEMBL2042135

> <STANDARD_TYPE>
IC50

> <RELATION>
=

> <STANDARD_VALUE>
1110

> <STANDARD_UNITS>
nM

> <Molecular_Weight>
490.54111

$$$$

  SciTegic11272012012D

 30 33  0  0  0  0            999 V2000
    0.6514   -5.3810    0.0000 N   0  0
    0.3921   -4.5973    0.0000 C   0  0
   -0.4154   -4.4284    0.0000 C   0  0
   -0.6729   -3.6447    0.0000 C   0  0
   -0.1229   -3.0297    0.0000 C   0  0
   -0.3789   -2.2450    0.0000 N   0  0
    0.1713   -1.6316    0.0000 C   0  0
    0.9918   -1.7178    0.0000 N   0  0
    1.3273   -0.9641    0.0000 N   0  0
    0.7144   -0.4125    0.0000 C   0  0
    0.7144    0.4125    0.0000 N   0  0
    0.0000    0.8250    0.0000 C   0  0
   -0.7144    0.4125    0.0000 N   0  0
   -0.7144   -0.4125    0.0000 C   0  0
   -1.4302   -0.8238    0.0000 N   0  0
   -2.1444   -0.4100    0.0000 C   0  0
   -2.8604   -0.8200    0.0000 C   0  0
   -3.5734   -0.4051    0.0000 C   0  0
   -3.5706    0.4199    0.0000 C   0  0
   -2.8546    0.8299    0.0000 C   0  0
   -2.8524    1.4899    0.0000 Cl  0  0
   -2.1416    0.4150    0.0000 C   0  0
    0.0000   -0.8250    0.0000 C   0  0
    0.6847   -3.1986    0.0000 C   0  0
    0.9422   -3.9824    0.0000 C   0  0
   -1.4311   -1.3738    0.0000 H   0  0
    1.2668   -2.1941    0.0000 H   0  0
   -0.9171   -2.1315    0.0000 H   0  0
    1.1899   -5.4928    0.0000 H   0  0
    0.2854   -5.7916    0.0000 H   0  0
  1  2  1  0
  1 29  1  0
  1 30  1  0
  2  3  2  0
  3  4  1  0
  4  5  2  0
  5  6  1  0
  5 24  1  0
  6  7  1  0
  6 28  1  0
  7  8  1  0
  8  9  1  0
  8 27  1  0
  9 10  2  0
 10 11  1  0
 11 12  2  0
 12 13  1  0
 13 14  2  0
 14 15  1  0
 14 23  1  0
 15 16  1  0
 15 26  1  0
 16 17  2  0
 17 18  1  0
 18 19  2  0
 19 20  1  0
 20 21  1  0
 20 22  2  0
 22 16  1  0
 23  7  2  0
 23 10  1  0
 24 25  2  0
 25  2  1  0
M  END
> <CMPD_CHEMBLID>
CHEMBL332612

> <STANDARD_TYPE>
IC50

> <RELATION>
=

> <STANDARD_VALUE>
1180

> <STANDARD_UNITS>
nM

> <Molecular_Weight>
351.79296

$$$$

  SciTegic11272012012D

 25 27  0  0  0  0            999 V2000
   -2.0134   -4.5941    0.0000 C   0  0
   -2.1704   -3.9530    0.0000 O   0  0
   -1.5746   -3.3817    0.0000 C   0  0
   -1.7697   -2.5801    0.0000 N   0  0
   -1.1730   -2.0103    0.0000 C   0  0
   -0.3810   -2.2450    0.0000 C   0  0
   -0.1861   -3.0438    0.0000 C   0  0
    0.6059   -3.2765    0.0000 O   0  0
    0.7618   -3.9178    0.0000 C   0  0
   -0.7828   -3.6136    0.0000 N   0  0
    0.1713   -1.6316    0.0000 C   0  0
    0.9918   -1.7179    0.0000 N   0  0
    1.3273   -0.9642    0.0000 N   0  0
    2.1337   -0.7943    0.0000 C   0  0
    2.5748   -1.2854    0.0000 C   0  0
    2.3387   -0.1669    0.0000 C   0  0
    0.7145   -0.4125    0.0000 C   0  0
    0.7145    0.4125    0.0000 N   0  0
    0.0000    0.8250    0.0000 C   0  0
   -0.7145    0.4125    0.0000 N   0  0
   -0.7145   -0.4125    0.0000 C   0  0
   -1.4302   -0.8238    0.0000 N   0  0
    0.0000   -0.8250    0.0000 C   0  0
   -1.9062   -0.5481    0.0000 H   0  0
   -1.4312   -1.3738    0.0000 H   0  0
  1  2  1  0
  2  3  1  0
  3  4  2  0
  4  5  1  0
  5  6  2  0
  6  7  1  0
  6 11  1  0
  7  8  1  0
  7 10  2  0
  8  9  1  0
 10  3  1  0
 11 12  2  0
 12 13  1  0
 13 14  1  0
 13 17  1  0
 14 15  1  0
 14 16  1  0
 17 18  2  0
 18 19  1  0
 19 20  2  0
 20 21  1  0
 21 22  1  0
 21 23  2  0
 22 24  1  0
 22 25  1  0
 23 11  1  0
 23 17  1  0
M  END
> <CMPD_CHEMBLID>
CHEMBL1242846

> <STANDARD_TYPE>
IC50

> <RELATION>
=

> <STANDARD_VALUE>
1190

> <STANDARD_UNITS>
nM

> <Molecular_Weight>
315.33048

$$$$

  SciTegic11272012012D

 28 31  0  0  0  0            999 V2000
    0.5229   -3.1659    0.0000 Cl  0  0
   -0.1229   -3.0297    0.0000 C   0  0
   -0.3789   -2.2450    0.0000 C   0  0
    0.1713   -1.6316    0.0000 N   0  0
    0.9918   -1.7178    0.0000 N   0  0
    1.3273   -0.9641    0.0000 C   0  0
    0.7144   -0.4125    0.0000 C   0  0
    0.7144    0.4125    0.0000 C   0  0
    1.4285    0.8267    0.0000 N   0  0
    1.4273    1.6521    0.0000 C   0  0
    2.1413    2.0663    0.0000 C   0  0
    2.1413    2.8914    0.0000 C   0  0
    2.8558    3.3039    0.0000 C   0  0
    3.5703    2.8914    0.0000 C   0  0
    3.5703    2.0664    0.0000 C   0  0
    2.8559    1.6539    0.0000 N   0  0
    0.0000    0.8250    0.0000 N   0  0
   -0.7144    0.4125    0.0000 C   0  0
   -0.7144   -0.4125    0.0000 N   0  0
    0.0000   -0.8250    0.0000 C   0  0
   -0.6741   -3.6442    0.0000 C   0  0
   -0.4193   -4.4289    0.0000 C   0  0
   -0.9714   -5.0419    0.0000 C   0  0
   -1.7784   -4.8702    0.0000 C   0  0
   -2.2201   -5.3606    0.0000 Cl  0  0
   -2.0332   -4.0855    0.0000 C   0  0
   -1.4810   -3.4726    0.0000 C   0  0
    1.9052    0.5525    0.0000 H   0  0
  1  2  1  0
  2  3  1  0
  2 21  1  0
  3  4  1  0
  4  5  1  0
  5  6  2  0
  6  7  1  0
  7  8  2  0
  8  9  1  0
  8 17  1  0
  9 10  1  0
  9 28  1  0
 10 11  1  0
 11 12  2  0
 12 13  1  0
 13 14  2  0
 14 15  1  0
 15 16  2  0
 16 11  1  0
 17 18  2  0
 18 19  1  0
 19 20  2  0
 20  4  1  0
 20  7  1  0
 21 22  2  0
 22 23  1  0
 23 24  2  0
 24 25  1  0
 24 26  1  0
 26 27  2  0
 27 21  1  0
M  END
> <CMPD_CHEMBLID>
CHEMBL1775045

> <STANDARD_TYPE>
Ki

> <RELATION>
=

> <STANDARD_VALUE>
1200

> <STANDARD_UNITS>
nM

> <Molecular_Weight>
399.27654

$$$$

  SciTegic11272012012D

 23 25  0  0  0  0            999 V2000
    2.0006   -0.4977    0.0000 O   0  5
    1.4285   -0.8267    0.0000 N   0  3
    1.4276   -1.4867    0.0000 O   0  0
    0.7144   -0.4125    0.0000 C   0  0
    0.7144    0.4125    0.0000 C   0  0
    0.0000    0.8250    0.0000 C   0  0
   -0.7144    0.4125    0.0000 C   0  0
   -0.7144   -0.4125    0.0000 C   0  0
   -1.4285   -0.8267    0.0000 N   0  0
   -1.4273   -1.6521    0.0000 C   0  0
   -2.1403   -2.0672    0.0000 N   0  0
   -2.1375   -2.8922    0.0000 C   0  0
   -1.4216   -3.3022    0.0000 C   0  0
   -0.7086   -2.8872    0.0000 C   0  0
   -0.7114   -2.0622    0.0000 N   0  0
    0.0077   -3.2975    0.0000 C   0  0
    0.0119   -4.1225    0.0000 C   0  0
    0.7285   -4.5314    0.0000 C   0  0
    1.4408   -4.1153    0.0000 C   0  0
    1.4367   -3.2903    0.0000 C   0  0
    0.7201   -2.8814    0.0000 N   0  0
    0.0000   -0.8250    0.0000 C   0  0
   -1.9053   -0.5525    0.0000 H   0  0
  1  2  1  0
  2  3  2  0
  2  4  1  0
  4  5  2  0
  5  6  1  0
  6  7  2  0
  7  8  1  0
  8  9  1  0
  8 22  2  0
  9 10  1  0
  9 23  1  0
 10 11  2  0
 11 12  1  0
 12 13  2  0
 13 14  1  0
 14 15  2  0
 14 16  1  0
 15 10  1  0
 16 17  2  0
 17 18  1  0
 18 19  2  0
 19 20  1  0
 20 21  2  0
 21 16  1  0
 22  4  1  0
M  CHG  2   1  -1   2   1
M  END
> <CMPD_CHEMBLID>
CHEMBL60816

> <STANDARD_TYPE>
IC50

> <RELATION>
=

> <STANDARD_VALUE>
1200

> <STANDARD_UNITS>
nM

> <Molecular_Weight>
293.28014

$$$$

  SciTegic11272012012D

 45 49  0  0  0  0            999 V2000
    7.8661    0.2306    0.0000 C   0  0
    7.8645   -0.4294    0.0000 C   0  0
    7.1485   -0.8402    0.0000 N   0  0
    6.4345   -0.4261    0.0000 C   0  0
    6.4360    0.2339    0.0000 O   0  0
    5.7185   -0.8369    0.0000 C   0  0
    5.0045   -0.4227    0.0000 C   0  0
    4.2885   -0.8335    0.0000 C   0  0
    3.5745   -0.4193    0.0000 C   0  0
    2.8585   -0.8301    0.0000 C   0  0
    2.1445   -0.4159    0.0000 C   0  0
    2.1461    0.2441    0.0000 O   0  0
    1.4285   -0.8267    0.0000 N   0  0
    0.7145   -0.4125    0.0000 C   0  0
    0.7145    0.4125    0.0000 C   0  0
    0.0000    0.8250    0.0000 C   0  0
   -0.7145    0.4125    0.0000 C   0  0
   -0.7145   -0.4125    0.0000 C   0  0
   -1.4285   -0.8267    0.0000 N   0  0
   -1.4273   -1.6522    0.0000 C   0  0
   -2.1403   -2.0672    0.0000 N   0  0
   -2.1375   -2.8922    0.0000 C   0  0
   -1.4216   -3.3022    0.0000 C   0  0
   -0.7086   -2.8873    0.0000 C   0  0
    0.0086   -3.2960    0.0000 N   0  0
    0.7214   -2.8798    0.0000 C   0  0
    1.4670   -3.2162    0.0000 C   0  0
    2.0148   -2.5993    0.0000 C   0  0
    1.5974   -1.8877    0.0000 N   0  0
    0.7916   -2.0648    0.0000 N   0  0
    2.8363   -2.6799    0.0000 C   0  0
    3.4952   -3.0967    0.0000 C   0  0
    3.5021   -2.2717    0.0000 C   0  0
   -0.7114   -2.0622    0.0000 N   0  0
    0.0000   -0.8250    0.0000 C   0  0
    8.5785   -0.8437    0.0000 C   0  0
    9.3231   -0.5051    0.0000 O   0  0
    9.8727   -1.1205    0.0000 C   0  0
    9.4572   -1.8333    0.0000 C   0  0
    8.6510   -1.6584    0.0000 C   0  0
    1.8176   -1.3837    0.0000 H   0  0
    0.0114   -3.8460    0.0000 H   0  0
   -1.9053   -0.5525    0.0000 H   0  0
    1.4272   -1.3767    0.0000 H   0  0
    7.1472   -1.3902    0.0000 H   0  0
  1  2  1  0
  2  3  1  0
  2 36  1  0
  3  4  1  0
  3 45  1  0
  4  5  2  0
  4  6  1  0
  6  7  1  0
  7  8  1  0
  8  9  1  0
  9 10  1  0
 10 11  1  0
 11 12  2  0
 11 13  1  0
 13 14  1  0
 13 44  1  0
 14 15  2  0
 15 16  1  0
 16 17  2  0
 17 18  1  0
 18 19  1  0
 18 35  2  0
 19 20  1  0
 19 43  1  0
 20 21  2  0
 21 22  1  0
 22 23  2  0
 23 24  1  0
 24 25  1  0
 24 34  2  0
 25 26  1  0
 25 42  1  0
 26 27  1  0
 27 28  2  0
 28 29  1  0
 28 31  1  0
 29 30  1  0
 29 41  1  0
 30 26  2  0
 31 32  1  0
 32 33  1  0
 33 31  1  0
 34 20  1  0
 35 14  1  0
 36 37  1  0
 37 38  1  0
 38 39  2  0
 39 40  1  0
 40 36  2  0
M  END
> <CMPD_CHEMBLID>
CHEMBL3617740

> <STANDARD_TYPE>
Ki

> <RELATION>
=

> <STANDARD_VALUE>
1200

> <STANDARD_UNITS>
nM

> <Molecular_Weight>
542.63206

$$$$

  SciTegic11272012012D

 26 28  0  0  0  0            999 V2000
    4.1467   -0.7363    0.0000 C   0  0
    3.5744   -0.4075    0.0000 C   0  0
    2.8601   -0.8212    0.0000 C   0  0
    2.1444   -0.4100    0.0000 C   0  0
    1.4301   -0.8237    0.0000 N   0  0
    0.7144   -0.4125    0.0000 C   0  0
    0.7144    0.4125    0.0000 N   0  0
    0.0000    0.8250    0.0000 C   0  0
   -0.0017    1.6504    0.0000 S   0  0
   -0.5738    1.9796    0.0000 C   0  0
   -0.7144    0.4125    0.0000 N   0  0
   -0.7144   -0.4125    0.0000 C   0  0
    0.0000   -0.8250    0.0000 C   0  0
   -0.1713   -1.6316    0.0000 C   0  0
   -0.9917   -1.7178    0.0000 N   0  0
   -1.3273   -0.9641    0.0000 N   0  0
   -2.1336   -0.7943    0.0000 C   0  0
   -2.6852   -1.4084    0.0000 C   0  0
   -2.4803   -2.0358    0.0000 Cl  0  0
   -3.4929   -1.2383    0.0000 C   0  0
   -4.0451   -1.8513    0.0000 C   0  0
   -4.8520   -1.6797    0.0000 C   0  0
   -5.1068   -0.8950    0.0000 C   0  0
   -4.5548   -0.2820    0.0000 C   0  0
   -3.7478   -0.4536    0.0000 C   0  0
    1.4311   -1.3737    0.0000 H   0  0
  1  2  1  0
  2  3  1  0
  3  4  1  0
  4  5  1  0
  5  6  1  0
  5 26  1  0
  6  7  2  0
  7  8  1  0
  8  9  1  0
  8 11  2  0
  9 10  1  0
 11 12  1  0
 12 13  2  0
 13  6  1  0
 13 14  1  0
 14 15  2  0
 15 16  1  0
 16 12  1  0
 16 17  1  0
 17 18  1  0
 18 19  1  0
 18 20  1  0
 20 21  2  0
 21 22  1  0
 22 23  2  0
 23 24  1  0
 24 25  2  0
 25 20  1  0
M  END
> <CMPD_CHEMBLID>
CHEMBL40798

> <STANDARD_TYPE>
Ki

> <RELATION>
=

> <STANDARD_VALUE>
1200

> <STANDARD_UNITS>
nM

> <Molecular_Weight>
375.91878

$$$$

  SciTegic11272012012D

 51 52  0  0  0  0            999 V2000
    1.2774   -3.2199    0.0000 C   0  0
    0.7072   -2.8875    0.0000 C   0  0
    0.1344   -3.2153    0.0000 O   0  0
    0.7108   -2.0621    0.0000 N   0  0
    1.4273   -1.6521    0.0000 C   0  0
    1.4285   -0.8267    0.0000 C   0  0
    0.7144   -0.4125    0.0000 C   0  0
    0.7144    0.4125    0.0000 C   0  0
    0.0000    0.8250    0.0000 C   0  0
   -0.7144    0.4125    0.0000 C   0  0
   -0.7144   -0.4125    0.0000 C   0  0
    0.0000   -0.8250    0.0000 C   0  0
   -1.4293    0.8252    0.0000 C   0  0
   -2.0007    0.4950    0.0000 F   0  0
   -1.4292    0.1652    0.0000 F   0  0
   -1.4298    1.6506    0.0000 P   0  0
   -0.8584    1.9808    0.0000 O   0  0
   -2.1446    2.0633    0.0000 O   0  0
   -0.7003    1.2311    0.0000 O   0  0
    2.1412   -2.0663    0.0000 C   0  0
    2.7134   -1.7373    0.0000 O   0  0
    2.1401   -2.8917    0.0000 N   0  0
    2.8541   -3.3059    0.0000 C   0  0
    3.5705   -2.8959    0.0000 C   0  0
    4.2840   -3.3108    0.0000 C   0  0
    5.0004   -2.9009    0.0000 C   0  0
    5.0027   -2.2409    0.0000 O   0  0
    5.7139   -3.3158    0.0000 O   0  0
    2.8529   -4.1313    0.0000 C   0  0
    2.2808   -4.4603    0.0000 O   0  0
    3.5669   -4.5455    0.0000 N   0  0
    3.5657   -5.3709    0.0000 C   0  0
    4.2797   -5.7851    0.0000 C   0  0
    4.2785   -6.6105    0.0000 C   0  0
    4.9925   -7.0247    0.0000 C   0  0
    4.9926   -7.8496    0.0000 C   0  0
    5.7070   -8.2622    0.0000 C   0  0
    6.4215   -7.8497    0.0000 C   0  0
    6.4215   -7.0247    0.0000 C   0  0
    5.7070   -6.6122    0.0000 C   0  0
    2.8510   -5.7839    0.0000 C   0  0
    2.2794   -5.4539    0.0000 O   0  0
    2.8507   -6.6093    0.0000 N   0  0
    2.3745   -6.8844    0.0000 H   0  0
    3.3271   -6.8843    0.0000 H   0  0
    4.0437   -4.2713    0.0000 H   0  0
    6.1913   -3.0427    0.0000 H   0  0
    1.6633   -3.1659    0.0000 H   0  0
   -0.2244    1.5067    0.0000 H   0  0
   -2.1450    2.6133    0.0000 H   0  0
    0.2357   -1.7851    0.0000 H   0  0
  1  2  1  0
  2  3  2  0
  2  4  1  0
  4  5  1  0
  4 51  1  0
  5  6  1  0
  5 20  1  0
  6  7  1  0
  7  8  2  0
  8  9  1  0
  9 10  2  0
 10 11  1  0
 10 13  1  0
 11 12  2  0
 12  7  1  0
 13 14  1  0
 13 15  1  0
 13 16  1  0
 16 17  2  0
 16 18  1  0
 16 19  1  0
 18 50  1  0
 19 49  1  0
 20 21  2  0
 20 22  1  0
 22 23  1  0
 22 48  1  0
 23 24  1  0
 23 29  1  0
 24 25  1  0
 25 26  1  0
 26 27  2  0
 26 28  1  0
 28 47  1  0
 29 30  2  0
 29 31  1  0
 31 32  1  0
 31 46  1  0
 32 33  1  0
 32 41  1  0
 33 34  1  0
 34 35  1  0
 35 36  1  0
 36 37  1  0
 37 38  1  0
 38 39  1  0
 39 40  1  0
 40 35  1  0
 41 42  2  0
 41 43  1  0
 43 44  1  0
 43 45  1  0
M  END
> <CMPD_CHEMBLID>
CHEMBL294692

> <STANDARD_TYPE>
IC50

> <RELATION>
=

> <STANDARD_VALUE>
1200

> <STANDARD_UNITS>
nM

> <Molecular_Weight>
632.59053

$$$$

  SciTegic11272012012D

 23 26  0  0  0  0            999 V2000
    2.5784   -2.4158    0.0000 C   0  0
    2.3107   -1.8125    0.0000 N   0  0
    1.5040   -1.6398    0.0000 N   0  0
    1.4293   -0.8252    0.0000 C   0  0
    0.7145   -0.4125    0.0000 C   0  0
    0.7145    0.4125    0.0000 C   0  0
    0.0000    0.8250    0.0000 C   0  0
   -0.7145    0.4125    0.0000 C   0  0
   -1.4290    0.8250    0.0000 C   0  0
   -2.1434    0.4125    0.0000 C   0  0
   -2.1434   -0.4125    0.0000 C   0  0
   -1.4290   -0.8250    0.0000 C   0  0
   -0.7145   -0.4125    0.0000 C   0  0
    0.0000   -0.8250    0.0000 C   0  0
    2.1727   -0.4850    0.0000 C   0  0
    2.4288    0.2993    0.0000 C   0  0
    1.8786    0.9146    0.0000 N   0  0
    3.2361    0.4696    0.0000 N   0  0
    3.7872   -0.1443    0.0000 C   0  0
    3.5311   -0.9285    0.0000 N   0  0
    2.7239   -1.0989    0.0000 C   0  0
    2.0501    1.4372    0.0000 H   0  0
    1.3402    0.8020    0.0000 H   0  0
  1  2  1  0
  2  3  1  0
  3  4  2  0
  4  5  1  0
  4 15  1  0
  5  6  2  0
  6  7  1  0
  7  8  2  0
  8  9  1  0
  9 10  2  0
 10 11  1  0
 11 12  2  0
 12 13  1  0
 13  8  1  0
 13 14  2  0
 14  5  1  0
 15 16  2  0
 16 17  1  0
 16 18  1  0
 17 22  1  0
 17 23  1  0
 18 19  2  0
 19 20  1  0
 20 21  2  0
 21  2  1  0
 21 15  1  0
M  END
> <CMPD_CHEMBLID>
CHEMBL1234815

> <STANDARD_TYPE>
IC50

> <RELATION>
=

> <STANDARD_VALUE>
1200

> <STANDARD_UNITS>
nM

> <Molecular_Weight>
275.30792

$$$$

  SciTegic11272012012D

 32 35  0  0  0  0            999 V2000
    1.4302   -0.8237    0.0000 O   0  0
    0.7144   -0.4125    0.0000 C   0  0
    0.7144    0.4125    0.0000 C   0  0
    0.0000    0.8250    0.0000 C   0  0
   -0.0017    1.6504    0.0000 O   0  0
   -0.7171    2.0622    0.0000 C   0  0
   -0.7188    2.8876    0.0000 C   0  0
   -0.1478    3.2186    0.0000 O   0  0
   -1.4343    3.2993    0.0000 N   0  0
   -1.4360    4.1248    0.0000 C   0  0
   -2.1505    4.5373    0.0000 C   0  0
   -2.1505    5.3623    0.0000 C   0  0
   -2.7221    5.6923    0.0000 Br  0  0
   -1.4361    5.7748    0.0000 C   0  0
   -0.7215    5.3623    0.0000 C   0  0
   -0.7215    4.5373    0.0000 N   0  0
   -0.7144    0.4125    0.0000 C   0  0
   -0.7144   -0.4125    0.0000 C   0  0
   -1.4290   -0.8250    0.0000 O   0  0
   -1.4290   -1.6500    0.0000 C   0  0
   -0.7144   -2.0625    0.0000 C   0  0
    0.0000   -1.6500    0.0000 C   0  0
    0.5716   -1.9800    0.0000 O   0  0
    0.0000   -0.8250    0.0000 C   0  0
   -2.1437   -2.0627    0.0000 C   0  0
   -2.8590   -1.6514    0.0000 C   0  0
   -3.5727   -2.0650    0.0000 C   0  0
   -3.5714   -2.8900    0.0000 C   0  0
   -2.8563   -3.3014    0.0000 C   0  0
   -2.1425   -2.8878    0.0000 C   0  0
   -1.9101    3.0235    0.0000 H   0  0
    1.9061   -0.5481    0.0000 H   0  0
  1  2  1  0
  1 32  1  0
  2  3  2  0
  3  4  1  0
  4  5  1  0
  4 17  2  0
  5  6  1  0
  6  7  1  0
  7  8  2  0
  7  9  1  0
  9 10  1  0
  9 31  1  0
 10 11  2  0
 11 12  1  0
 12 13  1  0
 12 14  2  0
 14 15  1  0
 15 16  2  0
 16 10  1  0
 17 18  1  0
 18 19  1  0
 19 20  1  0
 20 21  2  0
 20 25  1  0
 21 22  1  0
 22 23  2  0
 22 24  1  0
 24  2  1  0
 24 18  2  0
 25 26  2  0
 26 27  1  0
 27 28  2  0
 28 29  1  0
 29 30  2  0
 30 25  1  0
M  END
> <CMPD_CHEMBLID>
CHEMBL2408495

> <STANDARD_TYPE>
IC50

> <RELATION>
=

> <STANDARD_VALUE>
1230

> <STANDARD_UNITS>
nM

> <Molecular_Weight>
467.2689

$$$$

  SciTegic11272012012D

 41 44  0  0  0  0            999 V2000
    2.7168   -0.7388    0.0000 C   0  0
    2.1445   -0.4100    0.0000 C   0  0
    2.1433    0.2500    0.0000 C   0  0
    1.4302   -0.8237    0.0000 O   0  0
    0.7145   -0.4125    0.0000 C   0  0
    0.7145    0.4125    0.0000 C   0  0
    0.0000    0.8250    0.0000 C   0  0
    0.0000    1.6505    0.0000 C   0  0
    0.7138    2.0641    0.0000 C   0  0
    0.7125    2.8891    0.0000 C   0  0
   -0.0026    3.3005    0.0000 N   0  0
   -0.7164    2.8869    0.0000 C   0  0
   -0.7151    2.0619    0.0000 C   0  0
   -0.7145    0.4125    0.0000 C   0  0
   -1.2861    0.7425    0.0000 C   0  0
   -0.7145   -0.4125    0.0000 C   0  0
    0.0000   -0.8250    0.0000 C   0  0
   -0.0017   -1.6505    0.0000 N   0  0
   -0.7172   -2.0622    0.0000 C   0  0
   -0.7201   -2.8872    0.0000 N   0  0
   -1.4360   -3.2972    0.0000 C   0  0
   -2.1490   -2.8823    0.0000 C   0  0
   -2.7217   -3.2103    0.0000 Cl  0  0
   -2.1461   -2.0572    0.0000 C   0  0
   -2.8588   -1.6406    0.0000 N   0  0
   -2.8547   -0.8152    0.0000 C   0  0
   -2.1374   -0.4076    0.0000 C   0  0
   -2.1317    0.4175    0.0000 C   0  0
   -2.8433    0.8349    0.0000 C   0  0
   -3.5606    0.4273    0.0000 C   0  0
   -3.5663   -0.3977    0.0000 C   0  0
   -4.2841   -0.8054    0.0000 S   0  0
   -4.2884   -1.4654    0.0000 O   0  0
   -4.8578   -1.1318    0.0000 O   0  0
   -4.9963   -0.3882    0.0000 C   0  0
   -5.5701   -0.7142    0.0000 C   0  0
   -4.9919    0.2718    0.0000 C   0  0
   -1.4302   -1.6472    0.0000 N   0  0
   -3.3365   -1.9131    0.0000 H   0  0
    0.4742   -1.9263    0.0000 H   0  0
   -0.0035    3.8505    0.0000 H   0  0
  1  2  1  0
  2  3  1  0
  2  4  1  0
  4  5  1  0
  5  6  2  0
  6  7  1  0
  7  8  1  0
  7 14  2  0
  8  9  1  0
  9 10  1  0
 10 11  1  0
 11 12  1  0
 11 41  1  0
 12 13  1  0
 13  8  1  0
 14 15  1  0
 14 16  1  0
 16 17  2  0
 17  5  1  0
 17 18  1  0
 18 19  1  0
 18 40  1  0
 19 20  2  0
 20 21  1  0
 21 22  2  0
 22 23  1  0
 22 24  1  0
 24 25  1  0
 24 38  2  0
 25 26  1  0
 25 39  1  0
 26 27  2  0
 27 28  1  0
 28 29  2  0
 29 30  1  0
 30 31  2  0
 31 26  1  0
 31 32  1  0
 32 33  2  0
 32 34  2  0
 32 35  1  0
 35 36  1  0
 35 37  1  0
 38 19  1  0
M  END
> <CMPD_CHEMBLID>
CHEMBL2403108

> <STANDARD_TYPE>
IC50

> <RELATION>
=

> <STANDARD_VALUE>
1250

> <STANDARD_UNITS>
nM

> <Molecular_Weight>
558.13514

$$$$

  SciTegic11272012012D

 35 40  0  0  0  0            999 V2000
    1.4160   -6.4354    0.0000 F   0  0
    1.4171   -5.7754    0.0000 C   0  0
    0.7033   -5.3617    0.0000 C   0  0
    0.7046   -4.5367    0.0000 C   0  0
    1.4198   -4.1253    0.0000 C   0  0
    2.1336   -4.5390    0.0000 C   0  0
    2.1322   -5.3640    0.0000 C   0  0
    1.4227   -3.2999    0.0000 C   0  0
    0.8523   -2.9680    0.0000 O   0  0
    2.1388   -2.8893    0.0000 N   0  0
    2.1419   -2.0639    0.0000 C   0  0
    2.8570   -1.6525    0.0000 C   0  0
    2.8583   -0.8275    0.0000 C   0  0
    2.1445   -0.4139    0.0000 C   0  0
    1.4293   -0.8252    0.0000 C   0  0
    1.4281   -1.6502    0.0000 C   0  0
    0.7144   -0.4125    0.0000 C   0  0
    0.7144    0.4125    0.0000 N   0  0
    0.0000    0.8250    0.0000 C   0  0
    0.0000    1.6500    0.0000 C   0  0
   -0.7145    2.0625    0.0000 C   0  0
   -1.4290    1.6500    0.0000 C   0  0
   -2.1434    2.0625    0.0000 C   0  0
   -2.8579    1.6500    0.0000 C   0  0
   -2.8579    0.8250    0.0000 C   0  0
   -2.1434    0.4125    0.0000 C   0  0
   -1.4290    0.8250    0.0000 C   0  0
   -0.7144    0.4125    0.0000 C   0  0
   -0.7144   -0.4125    0.0000 C   0  0
   -1.3273   -0.9641    0.0000 C   0  0
   -0.9918   -1.7178    0.0000 C   0  0
   -0.1713   -1.6316    0.0000 C   0  0
    0.0000   -0.8250    0.0000 C   0  0
    1.1908    0.6875    0.0000 H   0  0
    2.6143   -3.1659    0.0000 H   0  0
  1  2  1  0
  2  3  2  0
  3  4  1  0
  4  5  2  0
  5  6  1  0
  5  8  1  0
  6  7  2  0
  7  2  1  0
  8  9  2  0
  8 10  1  0
 10 11  1  0
 10 35  1  0
 11 12  2  0
 12 13  1  0
 13 14  2  0
 14 15  1  0
 15 16  2  0
 15 17  1  0
 16 11  1  0
 17 18  1  0
 18 19  1  0
 18 34  1  0
 19 20  2  0
 20 21  1  0
 21 22  2  0
 22 23  1  0
 23 24  2  0
 24 25  1  0
 25 26  2  0
 26 27  1  0
 27 22  1  0
 27 28  2  0
 28 19  1  0
 28 29  1  0
 29 30  1  0
 30 31  2  0
 31 32  1  0
 32 33  1  0
 33 17  1  0
 33 29  1  0
M  END
> <CMPD_CHEMBLID>
CHEMBL1992042

> <STANDARD_TYPE>
Ki

> <RELATION>
=

> <STANDARD_VALUE>
1258.93

> <STANDARD_UNITS>
nM

> <Molecular_Weight>
434.50412

$$$$

  SciTegic11272012012D

 22 25  0  0  0  0            999 V2000
    1.3218   -2.2894    0.0000 O   0  0
    0.9918   -1.7178    0.0000 C   0  0
    1.3273   -0.9642    0.0000 N   0  0
    0.7145   -0.4125    0.0000 C   0  0
    0.7145    0.4125    0.0000 C   0  0
    0.0000    0.8250    0.0000 C   0  0
   -0.7145    0.4125    0.0000 C   0  0
   -0.7145   -0.4125    0.0000 C   0  0
    0.0000   -0.8250    0.0000 C   0  0
    0.1713   -1.6316    0.0000 C   0  0
   -0.3790   -2.2450    0.0000 C   0  0
   -0.1229   -3.0298    0.0000 C   0  0
    0.6588   -3.2708    0.0000 C   0  0
    0.6614   -4.0959    0.0000 N   0  0
   -0.1221   -4.3530    0.0000 C   0  0
   -0.4553   -5.1077    0.0000 C   0  0
   -1.2755   -5.1965    0.0000 C   0  0
   -1.7625   -4.5306    0.0000 C   0  0
   -1.4293   -3.7759    0.0000 C   0  0
   -0.6091   -3.6870    0.0000 C   0  0
    1.1073   -4.4178    0.0000 H   0  0
    1.8654   -0.8498    0.0000 H   0  0
  1  2  2  0
  2  3  1  0
  3  4  1  0
  3 22  1  0
  4  5  2  0
  5  6  1  0
  6  7  2  0
  7  8  1  0
  8  9  2  0
  9  4  1  0
  9 10  1  0
 10  2  1  0
 10 11  2  0
 11 12  1  0
 12 13  2  0
 13 14  1  0
 14 15  1  0
 14 21  1  0
 15 16  2  0
 16 17  1  0
 17 18  2  0
 18 19  1  0
 19 20  2  0
 20 12  1  0
 20 15  1  0
M  END
> <CMPD_CHEMBLID>
CHEMBL1986590

> <STANDARD_TYPE>
Ki

> <RELATION>
=

> <STANDARD_VALUE>
1258.93

> <STANDARD_UNITS>
nM

> <Molecular_Weight>
260.28998

$$$$

  SciTegic11272012012D

 38 41  0  0  0  0            999 V2000
    1.4276   -1.4867    0.0000 C   0  0
    1.4285   -0.8267    0.0000 N   0  0
    2.0006   -0.4977    0.0000 C   0  0
    0.7144   -0.4125    0.0000 C   0  0
    0.7144    0.4125    0.0000 C   0  0
    0.0000    0.8250    0.0000 C   0  0
   -0.7144    0.4125    0.0000 C   0  0
   -0.7144   -0.4125    0.0000 C   0  0
    0.0000   -0.8250    0.0000 C   0  0
   -1.4293    0.8252    0.0000 C   0  0
   -1.4307    1.6502    0.0000 C   0  0
   -2.1458    2.0616    0.0000 C   0  0
   -2.8596    1.6480    0.0000 N   0  0
   -2.8583    0.8230    0.0000 C   0  0
   -3.5716    0.4076    0.0000 N   0  0
   -3.5692   -0.4178    0.0000 S   0  0
   -2.9965   -0.7459    0.0000 O   0  0
   -2.9987   -0.0860    0.0000 O   0  0
   -4.2825   -0.8331    0.0000 C   0  0
   -4.2795   -1.6581    0.0000 C   0  0
   -4.9925   -2.0733    0.0000 C   0  0
   -5.7084   -1.6634    0.0000 C   0  0
   -6.4227   -2.0772    0.0000 N   0  0
   -5.7115   -0.8384    0.0000 C   0  0
   -4.9985   -0.4233    0.0000 C   0  0
   -2.1432    0.4116    0.0000 N   0  0
   -2.1471    2.8870    0.0000 C   0  0
   -1.4340    3.3018    0.0000 C   0  0
   -1.4366    4.1268    0.0000 C   0  0
   -2.1524    4.5371    0.0000 C   0  0
   -2.8655    4.1223    0.0000 C   0  0
   -2.8629    3.2973    0.0000 C   0  0
   -2.1567    5.3625    0.0000 N   0  3
   -2.7298    5.6899    0.0000 O   0  0
   -1.5867    5.6953    0.0000 O   0  5
   -6.8996   -1.8033    0.0000 H   0  0
   -6.4216   -2.6272    0.0000 H   0  0
   -4.0489    0.6810    0.0000 H   0  0
  1  2  1  0
  2  3  1  0
  2  4  1  0
  4  5  2  0
  5  6  1  0
  6  7  2  0
  7  8  1  0
  7 10  1  0
  8  9  2  0
  9  4  1  0
 10 11  2  0
 11 12  1  0
 12 13  2  0
 12 27  1  0
 13 14  1  0
 14 15  1  0
 14 26  2  0
 15 16  1  0
 15 38  1  0
 16 17  2  0
 16 18  2  0
 16 19  1  0
 19 20  2  0
 20 21  1  0
 21 22  2  0
 22 23  1  0
 22 24  1  0
 23 36  1  0
 23 37  1  0
 24 25  2  0
 25 19  1  0
 26 10  1  0
 27 28  2  0
 28 29  1  0
 29 30  2  0
 30 31  1  0
 30 33  1  0
 31 32  2  0
 32 27  1  0
 33 34  2  0
 33 35  1  0
M  CHG  2  33   1  35  -1
M  END
> <CMPD_CHEMBLID>
CHEMBL1980167

> <STANDARD_TYPE>
Ki

> <RELATION>
=

> <STANDARD_VALUE>
1258.93

> <STANDARD_UNITS>
nM

> <Molecular_Weight>
490.53428

$$$$

  SciTegic11272012012D

 24 27  0  0  0  0            999 V2000
    1.4276   -1.4867    0.0000 C   0  0
    1.4285   -0.8267    0.0000 O   0  0
    0.7145   -0.4125    0.0000 C   0  0
    0.7145    0.4125    0.0000 C   0  0
    0.0000    0.8250    0.0000 C   0  0
   -0.7145    0.4125    0.0000 C   0  0
   -1.4987    0.6674    0.0000 N   0  0
   -1.9836    0.0000    0.0000 C   0  0
   -1.4987   -0.6674    0.0000 C   0  0
   -1.7548   -1.4507    0.0000 C   0  0
   -2.5624   -1.6213    0.0000 C   0  0
   -3.1620   -1.0649    0.0000 C   0  0
   -3.0871   -0.4092    0.0000 O   0  0
   -3.8778   -1.4752    0.0000 N   0  0
   -3.7088   -2.2823    0.0000 C   0  0
   -4.1958   -2.9482    0.0000 C   0  0
   -3.8626   -3.7029    0.0000 C   0  0
   -3.0423   -3.7917    0.0000 C   0  0
   -2.5554   -3.1258    0.0000 C   0  0
   -2.8886   -2.3710    0.0000 C   0  0
   -0.7145   -0.4125    0.0000 C   0  0
    0.0000   -0.8250    0.0000 C   0  0
   -4.3796   -1.2500    0.0000 H   0  0
   -1.6686    1.1906    0.0000 H   0  0
  1  2  1  0
  2  3  1  0
  3  4  2  0
  4  5  1  0
  5  6  2  0
  6  7  1  0
  7  8  1  0
  7 24  1  0
  8  9  2  0
  9 10  1  0
  9 21  1  0
 10 11  2  0
 11 12  1  0
 12 13  2  0
 12 14  1  0
 14 15  1  0
 14 23  1  0
 15 16  2  0
 16 17  1  0
 17 18  2  0
 18 19  1  0
 19 20  2  0
 20 11  1  0
 20 15  1  0
 21  6  1  0
 21 22  2  0
 22  3  1  0
M  END
> <CMPD_CHEMBLID>
CHEMBL1997275

> <STANDARD_TYPE>
Ki

> <RELATION>
=

> <STANDARD_VALUE>
1258.93

> <STANDARD_UNITS>
nM

> <Molecular_Weight>
290.31596

$$$$

  SciTegic11272012012D

 29 33  0  0  0  0            999 V2000
    2.7079   -3.2242    0.0000 Cl  0  0
    2.1375   -2.8922    0.0000 C   0  0
    2.1403   -2.0672    0.0000 C   0  0
    1.4273   -1.6521    0.0000 C   0  0
    1.4285   -0.8267    0.0000 N   0  0
    0.7144   -0.4125    0.0000 C   0  0
    0.7144    0.4125    0.0000 N   0  0
    0.0000    0.8250    0.0000 C   0  0
    0.0017    1.6504    0.0000 N   0  0
    0.7171    2.0622    0.0000 C   0  0
    1.0886    2.7502    0.0000 C   0  0
    1.4985    2.0343    0.0000 C   0  0
   -0.7144    0.4125    0.0000 C   0  0
   -1.4986    0.6674    0.0000 S   0  0
   -1.9836    0.0000    0.0000 C   0  0
   -1.4986   -0.6674    0.0000 C   0  0
   -0.7144   -0.4125    0.0000 C   0  0
    0.0000   -0.8250    0.0000 N   0  0
    0.7114   -2.0622    0.0000 C   0  0
    0.7086   -2.8872    0.0000 C   0  0
    1.4216   -3.3022    0.0000 C   0  0
    1.4187   -4.1276    0.0000 N   0  0
    0.7035   -4.5388    0.0000 C   0  0
    0.7020   -5.3638    0.0000 C   0  0
    1.4156   -5.7776    0.0000 O   0  0
    2.1309   -5.3665    0.0000 C   0  0
    2.1325   -4.5415    0.0000 C   0  0
   -0.4742    1.9263    0.0000 H   0  0
    1.9053   -0.5525    0.0000 H   0  0
  1  2  1  0
  2  3  2  0
  3  4  1  0
  4  5  1  0
  4 19  2  0
  5  6  1  0
  5 29  1  0
  6  7  2  0
  7  8  1  0
  8  9  1  0
  8 13  2  0
  9 10  1  0
  9 28  1  0
 10 11  1  0
 11 12  1  0
 12 10  1  0
 13 14  1  0
 14 15  1  0
 15 16  2  0
 16 17  1  0
 17 13  1  0
 17 18  2  0
 18  6  1  0
 19 20  1  0
 20 21  2  0
 21  2  1  0
 21 22  1  0
 22 23  1  0
 23 24  1  0
 24 25  1  0
 25 26  1  0
 26 27  1  0
 27 22  1  0
M  END
> <CMPD_CHEMBLID>
CHEMBL2002586

> <STANDARD_TYPE>
Ki

> <RELATION>
=

> <STANDARD_VALUE>
1258.93

> <STANDARD_UNITS>
nM

> <Molecular_Weight>
401.913

$$$$

  SciTegic11272012012D

 30 33  0  0  0  0            999 V2000
    1.2861   -0.7425    0.0000 Cl  0  0
    0.7144   -0.4125    0.0000 C   0  0
    0.7144    0.4125    0.0000 C   0  0
    0.0000    0.8250    0.0000 C   0  0
   -0.7144    0.4125    0.0000 C   0  0
   -0.7144   -0.4125    0.0000 C   0  0
    0.0000   -0.8250    0.0000 C   0  0
   -1.4293    0.8252    0.0000 C   0  0
   -2.1432    0.4116    0.0000 C   0  0
   -2.8583    0.8230    0.0000 C   0  0
   -2.8596    1.6480    0.0000 C   0  0
   -3.5751    2.0595    0.0000 C   0  0
   -4.1472    2.3886    0.0000 N   0  0
   -2.1458    2.0616    0.0000 C   0  0
   -2.1469    2.7216    0.0000 O   0  0
   -1.4307    1.6502    0.0000 C   0  0
   -0.7156    2.0627    0.0000 C   0  0
   -0.1443    1.7322    0.0000 O   0  0
   -0.7147    2.8881    0.0000 C   0  0
   -0.0007    3.3014    0.0000 C   0  0
   -0.0015    4.1264    0.0000 C   0  0
   -0.7164    4.5382    0.0000 C   0  0
   -1.4304    4.1249    0.0000 C   0  0
   -1.4296    3.2999    0.0000 C   0  0
   -3.5725    0.4091    0.0000 C   0  0
   -3.5725   -0.4159    0.0000 C   0  0
   -4.2870   -0.8284    0.0000 C   0  0
   -5.0015   -0.4159    0.0000 C   0  0
   -5.0015    0.4091    0.0000 C   0  0
   -4.2870    0.8216    0.0000 C   0  0
  1  2  1  0
  2  3  2  0
  3  4  1  0
  4  5  2  0
  5  6  1  0
  5  8  1  0
  6  7  2  0
  7  2  1  0
  8  9  1  0
  9 10  1  0
 10 11  2  0
 10 25  1  0
 11 12  1  0
 11 14  1  0
 12 13  3  0
 14 15  2  0
 14 16  1  0
 16  8  1  0
 16 17  1  0
 17 18  2  0
 17 19  1  0
 19 20  2  0
 20 21  1  0
 21 22  2  0
 22 23  1  0
 23 24  2  0
 24 19  1  0
 25 26  2  0
 26 27  1  0
 27 28  2  0
 28 29  1  0
 29 30  2  0
 30 25  1  0
M  END
> <CMPD_CHEMBLID>
CHEMBL1978371

> <STANDARD_TYPE>
Ki

> <RELATION>
=

> <STANDARD_VALUE>
1258.93

> <STANDARD_UNITS>
nM

> <Molecular_Weight>
411.87962

$$$$

  SciTegic11272012012D

 46 52  0  0  0  0            999 V2000
    4.3560   -3.8538    0.0000 F   0  0
    4.6690   -3.2728    0.0000 C   0  0
    5.4937   -3.2485    0.0000 C   0  0
    5.8850   -2.5223    0.0000 C   0  0
    5.4517   -1.8202    0.0000 C   0  0
    4.6271   -1.8445    0.0000 C   0  0
    4.2357   -2.5707    0.0000 C   0  0
    3.4106   -2.5933    0.0000 C   0  0
    3.0965   -3.1738    0.0000 O   0  0
    2.9780   -1.8903    0.0000 N   0  0
    2.1529   -1.9129    0.0000 C   0  0
    1.7616   -2.6391    0.0000 C   0  0
    0.9369   -2.6634    0.0000 C   0  0
    0.5036   -1.9614    0.0000 C   0  0
    0.8976   -1.2355    0.0000 C   0  0
    1.7196   -1.2109    0.0000 C   0  0
    2.0324   -0.6297    0.0000 Cl  0  0
    0.4125   -0.5678    0.0000 C   0  0
   -0.4125   -0.5678    0.0000 N   0  0
   -0.6674    0.2169    0.0000 C   0  0
   -1.3342    0.7009    0.0000 S   0  0
   -1.0792    1.4855    0.0000 C   0  0
   -0.2543    1.4855    0.0000 C   0  0
    0.0000    0.7018    0.0000 N   0  0
    0.6674    0.2169    0.0000 C   0  0
    1.4524    0.4719    0.0000 C   0  0
    2.1028   -0.0311    0.0000 C   0  0
    2.8661    0.2821    0.0000 C   0  0
    2.9764    1.0997    0.0000 N   0  0
    2.3235    1.6041    0.0000 C   0  0
    2.4322    2.4223    0.0000 N   0  0
    3.1950    2.7378    0.0000 C   0  0
    3.3048    3.5554    0.0000 C   0  0
    4.0678    3.8692    0.0000 C   0  0
    4.7210    3.3653    0.0000 C   0  0
    4.6112    2.5476    0.0000 C   0  0
    3.8482    2.2339    0.0000 C   0  0
    5.2647    2.0435    0.0000 N   0  0
    6.0283    2.3560    0.0000 C   0  0
    6.6808    1.8511    0.0000 C   0  0
    6.5697    1.0336    0.0000 O   0  0
    5.8062    0.7210    0.0000 C   0  0
    5.1538    1.2260    0.0000 C   0  0
    1.5603    1.2908    0.0000 N   0  0
    1.9961    2.7575    0.0000 H   0  0
    3.2397   -1.4065    0.0000 H   0  0
  1  2  1  0
  2  3  2  0
  3  4  1  0
  4  5  2  0
  5  6  1  0
  6  7  2  0
  7  2  1  0
  7  8  1  0
  8  9  2  0
  8 10  1  0
 10 11  1  0
 10 46  1  0
 11 12  2  0
 12 13  1  0
 13 14  2  0
 14 15  1  0
 15 16  2  0
 15 18  1  0
 16 11  1  0
 16 17  1  0
 18 19  1  0
 19 20  2  0
 20 21  1  0
 21 22  1  0
 22 23  2  0
 23 24  1  0
 24 20  1  0
 24 25  1  0
 25 18  2  0
 25 26  1  0
 26 27  2  0
 27 28  1  0
 28 29  2  0
 29 30  1  0
 30 31  1  0
 30 44  2  0
 31 32  1  0
 31 45  1  0
 32 33  2  0
 33 34  1  0
 34 35  2  0
 35 36  1  0
 36 37  2  0
 36 38  1  0
 37 32  1  0
 38 39  1  0
 39 40  1  0
 40 41  1  0
 41 42  1  0
 42 43  1  0
 43 38  1  0
 44 26  1  0
M  END
> <CMPD_CHEMBLID>
CHEMBL2001228

> <STANDARD_TYPE>
Ki

> <RELATION>
=

> <STANDARD_VALUE>
1258.93

> <STANDARD_UNITS>
nM

> <Molecular_Weight>
626.103

$$$$

  SciTegic11272012012D

 21 24  0  0  0  0            999 V2000
   -0.2704   -2.1221    0.0000 C   0  0
    0.1713   -1.6316    0.0000 N   0  0
    0.9918   -1.7179    0.0000 C   0  0
    1.3273   -0.9642    0.0000 C   0  0
    2.1348   -0.7925    0.0000 C   0  0
    2.3964   -0.0169    0.0000 C   0  0
    3.2207   -0.0387    0.0000 C   0  0
    3.7886    0.5597    0.0000 N   0  0
    4.5909    0.3670    0.0000 C   0  0
    5.0453    0.8457    0.0000 Br  0  0
    4.8251   -0.4241    0.0000 C   0  0
    4.2571   -1.0225    0.0000 N   0  0
    3.4549   -0.8298    0.0000 C   0  0
    2.7754   -1.2969    0.0000 N   0  0
    0.7145   -0.4125    0.0000 C   0  0
    0.7145    0.4125    0.0000 C   0  0
    0.0000    0.8250    0.0000 C   0  0
   -0.7145    0.4125    0.0000 C   0  0
   -0.7145   -0.4125    0.0000 C   0  0
    0.0000   -0.8250    0.0000 C   0  0
    2.7575   -1.8466    0.0000 H   0  0
  1  2  1  0
  2  3  1  0
  3  4  2  0
  4  5  1  0
  4 15  1  0
  5  6  2  0
  6  7  1  0
  7  8  2  0
  8  9  1  0
  9 10  1  0
  9 11  2  0
 11 12  1  0
 12 13  2  0
 13  7  1  0
 13 14  1  0
 14  5  1  0
 14 21  1  0
 15 16  2  0
 16 17  1  0
 17 18  2  0
 18 19  1  0
 19 20  2  0
 20  2  1  0
 20 15  1  0
M  END
> <CMPD_CHEMBLID>
CHEMBL1978167

> <STANDARD_TYPE>
Ki

> <RELATION>
=

> <STANDARD_VALUE>
1258.93

> <STANDARD_UNITS>
nM

> <Molecular_Weight>
327.17864

$$$$

  SciTegic11272012012D

 24 27  0  0  0  0            999 V2000
    2.6454   -3.1434    0.0000 O   0  0
    2.2313   -2.4292    0.0000 N   0  0
    1.4059   -2.4302    0.0000 C   0  0
    0.9918   -1.7178    0.0000 C   0  0
    1.3273   -0.9641    0.0000 N   0  0
    0.7144   -0.4125    0.0000 C   0  0
    0.7144    0.4125    0.0000 C   0  0
    0.0000    0.8250    0.0000 C   0  0
   -0.7144    0.4125    0.0000 C   0  0
   -0.7144   -0.4125    0.0000 C   0  0
    0.0000   -0.8250    0.0000 C   0  0
    0.1713   -1.6316    0.0000 N   0  0
    0.9957   -3.1465    0.0000 C   0  0
    1.3397   -3.8887    0.0000 N   0  0
    0.7287   -4.4424    0.0000 C   0  0
    0.7315   -5.2674    0.0000 C   0  0
    0.0184   -5.6823    0.0000 C   0  0
   -0.6975   -5.2722    0.0000 C   0  0
   -0.7003   -4.4472    0.0000 C   0  0
    0.0128   -4.0323    0.0000 C   0  0
    0.1814   -3.2252    0.0000 N   0  0
   -0.1856   -2.8156    0.0000 H   0  0
   -0.1967   -2.0403    0.0000 H   0  0
    3.1954   -3.1427    0.0000 H   0  0
  1  2  1  0
  1 24  1  0
  2  3  2  0
  3  4  1  0
  3 13  1  0
  4  5  2  0
  5  6  1  0
  6  7  2  0
  7  8  1  0
  8  9  2  0
  9 10  1  0
 10 11  2  0
 11  6  1  0
 11 12  1  0
 12  4  1  0
 12 23  1  0
 13 14  2  0
 14 15  1  0
 15 16  2  0
 16 17  1  0
 17 18  2  0
 18 19  1  0
 19 20  2  0
 20 15  1  0
 20 21  1  0
 21 13  1  0
 21 22  1  0
M  END
> <CMPD_CHEMBLID>
CHEMBL546797

> <STANDARD_TYPE>
Ki

> <RELATION>
=

> <STANDARD_VALUE>
1258.93

> <STANDARD_UNITS>
nM

> <Molecular_Weight>
277.28074

$$$$

  SciTegic11272012012D

 23 25  0  0  0  0            999 V2000
   -0.1742   -2.8725    0.0000 C   0  0
   -0.3790   -2.2450    0.0000 C   0  0
    0.1713   -1.6316    0.0000 C   0  0
    0.9918   -1.7179    0.0000 C   0  0
    1.3273   -0.9642    0.0000 N   0  0
    0.7145   -0.4125    0.0000 C   0  0
    0.7145    0.4125    0.0000 N   0  0
    0.0000    0.8250    0.0000 C   0  0
   -0.7145    0.4125    0.0000 C   0  0
   -0.7145   -0.4125    0.0000 N   0  0
    0.0000   -0.8250    0.0000 C   0  0
    1.4045   -2.4327    0.0000 C   0  0
    1.0477   -3.1735    0.0000 C   0  0
    1.5128   -3.8549    0.0000 C   0  0
    2.3355   -3.7928    0.0000 C   0  0
    2.6930   -3.0493    0.0000 C   0  0
    2.2279   -2.3679    0.0000 C   0  0
    2.8008   -4.4746    0.0000 C   0  0
    3.4590   -4.4248    0.0000 C   0  0
    3.1732   -5.0196    0.0000 C   0  0
    2.4435   -5.2188    0.0000 O   0  0
    2.7536   -5.6730    0.0000 H   0  0
    1.8654   -0.8498    0.0000 H   0  0
  1  2  1  0
  2  3  1  0
  3  4  2  0
  4  5  1  0
  4 12  1  0
  5  6  1  0
  5 23  1  0
  6  7  2  0
  7  8  1  0
  8  9  2  0
  9 10  1  0
 10 11  2  0
 11  3  1  0
 11  6  1  0
 12 13  2  0
 13 14  1  0
 14 15  2  0
 15 16  1  0
 15 18  1  0
 16 17  2  0
 17 12  1  0
 18 19  1  0
 18 20  1  0
 18 21  1  0
 21 22  1  0
M  END
> <CMPD_CHEMBLID>
CHEMBL1976420

> <STANDARD_TYPE>
Ki

> <RELATION>
=

> <STANDARD_VALUE>
1258.93

> <STANDARD_UNITS>
nM

> <Molecular_Weight>
281.35226

$$$$

  SciTegic11272012012D

 30 31  0  0  0  0            999 V2000
    0.8581   -1.1557    0.0000 C   0  0
    1.4293   -0.8252    0.0000 C   0  0
    1.4308   -1.6507    0.0000 C   0  0
    2.1462   -2.0626    0.0000 C   0  0
    2.1476   -2.8880    0.0000 C   0  0
    1.5765   -3.2189    0.0000 O   0  0
    2.8630   -3.2999    0.0000 O   0  0
    0.7144   -0.4125    0.0000 C   0  0
    0.7144    0.4125    0.0000 C   0  0
    0.0000    0.8250    0.0000 C   0  0
   -0.7144    0.4125    0.0000 C   0  0
   -1.4285    0.8267    0.0000 O   0  0
   -0.7144   -0.4125    0.0000 C   0  0
   -1.4285   -0.8267    0.0000 N   0  0
    0.0000   -0.8250    0.0000 C   0  0
    2.1444   -0.4129    0.0000 C   0  0
    2.8587   -0.8257    0.0000 C   0  0
    3.5734   -0.4136    0.0000 C   0  0
    3.5738    0.4114    0.0000 C   0  0
    4.2898    0.8222    0.0000 O   0  0
    2.8596    0.8243    0.0000 C   0  0
    2.8583    1.6497    0.0000 N   0  0
    2.1449    0.4121    0.0000 C   0  0
    2.3818    1.9243    0.0000 H   0  0
    3.3343    1.9253    0.0000 H   0  0
    4.7655    0.5464    0.0000 H   0  0
   -1.4277   -1.3767    0.0000 H   0  0
   -1.9053   -0.5525    0.0000 H   0  0
   -1.4277    1.3767    0.0000 H   0  0
    2.8640   -3.8499    0.0000 H   0  0
  1  2  1  0
  2  3  1  0
  2  8  1  0
  2 16  1  0
  3  4  1  0
  4  5  1  0
  5  6  2  0
  5  7  1  0
  7 30  1  0
  8  9  2  0
  9 10  1  0
 10 11  2  0
 11 12  1  0
 11 13  1  0
 12 29  1  0
 13 14  1  0
 13 15  2  0
 14 27  1  0
 14 28  1  0
 15  8  1  0
 16 17  2  0
 17 18  1  0
 18 19  2  0
 19 20  1  0
 19 21  1  0
 20 26  1  0
 21 22  1  0
 21 23  2  0
 22 24  1  0
 22 25  1  0
 23 16  1  0
M  END
> <CMPD_CHEMBLID>
CHEMBL1975923

> <STANDARD_TYPE>
Ki

> <RELATION>
>

> <STANDARD_VALUE>
1258.93

> <STANDARD_UNITS>
nM

> <Molecular_Weight>
316.3517

$$$$

  SciTegic11272012012D

 38 41  0  0  0  0            999 V2000
    4.4324   -1.7399    0.0000 C   0  0
    5.0023   -2.0729    0.0000 N   0  0
    4.9977   -2.8983    0.0000 C   0  0
    5.7108   -3.3133    0.0000 N   0  0
    5.7079   -4.1383    0.0000 C   0  0
    4.9920   -4.5484    0.0000 C   0  0
    4.2790   -4.1334    0.0000 C   0  0
    4.2818   -3.3084    0.0000 C   0  0
    3.5675   -2.8947    0.0000 C   0  0
    2.8518   -3.3059    0.0000 N   0  0
    2.1375   -2.8922    0.0000 C   0  0
    2.1403   -2.0672    0.0000 N   0  0
    1.4273   -1.6522    0.0000 C   0  0
    1.4285   -0.8267    0.0000 N   0  0
    0.7145   -0.4125    0.0000 C   0  0
    0.7145    0.4125    0.0000 C   0  0
    0.0000    0.8250    0.0000 C   0  0
   -0.7145    0.4125    0.0000 C   0  0
   -1.4986    0.6674    0.0000 N   0  0
   -1.9836    0.0000    0.0000 C   0  0
   -2.6436    0.0000    0.0000 O   0  0
   -1.4986   -0.6674    0.0000 C   0  0
   -0.7145   -0.4125    0.0000 C   0  0
    0.0000   -0.8250    0.0000 C   0  0
    0.7114   -2.0622    0.0000 N   0  0
    0.7086   -2.8872    0.0000 C   0  0
    1.4216   -3.3022    0.0000 C   0  0
    1.4187   -4.1277    0.0000 C   0  0
    0.8462   -4.4561    0.0000 F   0  0
    1.9893   -4.4595    0.0000 F   0  0
    1.4168   -4.7877    0.0000 F   0  0
    5.7191   -1.6637    0.0000 S   0  0
    5.7228   -1.0037    0.0000 O   0  0
    6.2925   -1.3367    0.0000 O   0  0
    6.2890   -1.9967    0.0000 C   0  0
   -1.6685    1.1905    0.0000 H   0  0
    1.9053   -0.5525    0.0000 H   0  0
    2.8508   -3.8559    0.0000 H   0  0
  1  2  1  0
  2  3  1  0
  2 32  1  0
  3  4  2  0
  4  5  1  0
  5  6  2  0
  6  7  1  0
  7  8  2  0
  8  3  1  0
  8  9  1  0
  9 10  1  0
 10 11  1  0
 10 38  1  0
 11 12  2  0
 12 13  1  0
 13 14  1  0
 13 25  2  0
 14 15  1  0
 14 37  1  0
 15 16  2  0
 16 17  1  0
 17 18  2  0
 18 19  1  0
 19 20  1  0
 19 36  1  0
 20 21  2  0
 20 22  1  0
 22 23  1  0
 23 18  1  0
 23 24  2  0
 24 15  1  0
 25 26  1  0
 26 27  2  0
 27 11  1  0
 27 28  1  0
 28 29  1  0
 28 30  1  0
 28 31  1  0
 32 33  2  0
 32 34  2  0
 32 35  1  0
M  END
> <CMPD_CHEMBLID>
CHEMBL1084546

> <STANDARD_TYPE>
Ki

> <RELATION>
>

> <STANDARD_VALUE>
1258.93

> <STANDARD_UNITS>
nM

> <Molecular_Weight>
507.48881

$$$$

  SciTegic11272012012D

 26 28  0  0  0  0            999 V2000
    1.4276   -1.4867    0.0000 C   0  0
    1.4285   -0.8267    0.0000 O   0  0
    0.7145   -0.4125    0.0000 C   0  0
    0.7145    0.4125    0.0000 C   0  0
    0.0000    0.8250    0.0000 C   0  0
   -0.7145    0.4125    0.0000 C   0  0
   -1.4302    0.8237    0.0000 C   0  0
   -2.1445    0.4100    0.0000 S   0  0
   -2.8602    0.8213    0.0000 C   0  0
   -3.6035    0.4797    0.0000 N   0  0
   -4.1555    1.0928    0.0000 N   0  0
   -3.7430    1.8073    0.0000 C   0  0
   -4.0766    2.5608    0.0000 N   0  0
   -3.5905    3.2279    0.0000 C   0  0
   -2.9342    3.1577    0.0000 O   0  0
   -3.9247    3.9827    0.0000 C   0  0
   -4.7451    4.0690    0.0000 C   0  0
   -5.0807    4.8226    0.0000 C   0  0
   -4.5958    5.4901    0.0000 C   0  0
   -3.7753    5.4038    0.0000 C   0  0
   -3.4397    4.6501    0.0000 C   0  0
   -2.7833    4.5811    0.0000 Cl  0  0
   -2.9360    1.6358    0.0000 S   0  0
   -0.7145   -0.4125    0.0000 C   0  0
    0.0000   -0.8250    0.0000 C   0  0
   -4.6235    2.6192    0.0000 H   0  0
  1  2  1  0
  2  3  1  0
  3  4  2  0
  4  5  1  0
  5  6  2  0
  6  7  1  0
  6 24  1  0
  7  8  1  0
  8  9  1  0
  9 10  2  0
 10 11  1  0
 11 12  2  0
 12 13  1  0
 12 23  1  0
 13 14  1  0
 13 26  1  0
 14 15  2  0
 14 16  1  0
 16 17  2  0
 17 18  1  0
 18 19  2  0
 19 20  1  0
 20 21  2  0
 21 16  1  0
 21 22  1  0
 23  9  1  0
 24 25  2  0
 25  3  1  0
M  END
> <CMPD_CHEMBLID>
CHEMBL270452

> <STANDARD_TYPE>
Ki

> <RELATION>
=

> <STANDARD_VALUE>
1260

> <STANDARD_UNITS>
nM

> <Molecular_Weight>
391.89496

$$$$

  SciTegic11272012012D

 29 32  0  0  0  0            999 V2000
    0.5229   -3.1659    0.0000 Cl  0  0
   -0.1229   -3.0297    0.0000 C   0  0
   -0.3789   -2.2450    0.0000 C   0  0
    0.1713   -1.6316    0.0000 N   0  0
    0.9918   -1.7178    0.0000 N   0  0
    1.3273   -0.9641    0.0000 C   0  0
    0.7144   -0.4125    0.0000 C   0  0
    0.7144    0.4125    0.0000 C   0  0
    1.4285    0.8267    0.0000 N   0  0
    1.4273    1.6521    0.0000 C   0  0
    2.1413    2.0663    0.0000 C   0  0
    2.1413    2.8914    0.0000 C   0  0
    2.8558    3.3039    0.0000 C   0  0
    3.5703    2.8914    0.0000 C   0  0
    3.5703    2.0664    0.0000 C   0  0
    4.1419    1.7365    0.0000 Br  0  0
    2.8559    1.6539    0.0000 C   0  0
    0.0000    0.8250    0.0000 N   0  0
   -0.7144    0.4125    0.0000 C   0  0
   -0.7144   -0.4125    0.0000 N   0  0
    0.0000   -0.8250    0.0000 C   0  0
   -0.6741   -3.6442    0.0000 C   0  0
   -0.4193   -4.4289    0.0000 C   0  0
   -0.9714   -5.0419    0.0000 C   0  0
   -1.7784   -4.8702    0.0000 C   0  0
   -2.2201   -5.3606    0.0000 Br  0  0
   -2.0332   -4.0856    0.0000 C   0  0
   -1.4810   -3.4726    0.0000 C   0  0
    1.9053    0.5525    0.0000 H   0  0
  1  2  1  0
  2  3  1  0
  2 22  1  0
  3  4  1  0
  4  5  1  0
  5  6  2  0
  6  7  1  0
  7  8  2  0
  8  9  1  0
  8 18  1  0
  9 10  1  0
  9 29  1  0
 10 11  1  0
 11 12  2  0
 12 13  1  0
 13 14  2  0
 14 15  1  0
 15 16  1  0
 15 17  2  0
 17 11  1  0
 18 19  2  0
 19 20  1  0
 20 21  2  0
 21  4  1  0
 21  7  1  0
 22 23  2  0
 23 24  1  0
 24 25  2  0
 25 26  1  0
 25 27  1  0
 27 28  2  0
 28 22  1  0
M  END
> <CMPD_CHEMBLID>
CHEMBL2397814

> <STANDARD_TYPE>
Ki

> <RELATION>
=

> <STANDARD_VALUE>
1264

> <STANDARD_UNITS>
nM

> <Molecular_Weight>
521.63554

$$$$

  SciTegic11272012012D

 61 68  0  0  0  0            999 V2000
    6.3476    2.6573    0.0000 C   0  0
    5.9072    2.1658    0.0000 C   0  0
    5.2613    2.3017    0.0000 C   0  0
    5.7018    2.7931    0.0000 C   0  0
    6.1631    1.3825    0.0000 C   0  0
    6.9482    1.1290    0.0000 C   0  0
    6.9496    0.3039    0.0000 C   0  0
    7.6144   -0.1830    0.0000 N   0  0
    8.3700    0.1494    0.0000 C   0  0
    8.4418    0.8055    0.0000 O   0  0
    9.0360   -0.3384    0.0000 N   0  0
    9.7916   -0.0061    0.0000 C   0  0
   10.4579   -0.4926    0.0000 C   0  0
   11.2124   -0.1590    0.0000 C   0  0
   11.3007    0.6613    0.0000 C   0  0
   12.0549    0.9967    0.0000 N   0  0
   12.1421    1.8176    0.0000 C   0  0
   11.4742    2.3020    0.0000 N   0  0
   11.5596    3.1225    0.0000 C   0  0
   12.3130    3.4588    0.0000 N   0  0
   12.9809    2.9745    0.0000 C   0  0
   13.7342    3.3108    0.0000 C   0  0
   14.4022    2.8265    0.0000 C   0  0
   14.3168    2.0059    0.0000 C   0  0
   14.9840    1.5200    0.0000 N   0  0
   13.5634    1.6697    0.0000 C   0  0
   12.8955    2.1539    0.0000 C   0  0
   10.6344    1.1479    0.0000 C   0  0
    9.8799    0.8142    0.0000 C   0  0
    6.1692    0.0591    0.0000 N   0  0
    5.6794    0.7142    0.0000 N   0  0
    5.9142   -0.7260    0.0000 C   0  0
    6.4664   -1.3391    0.0000 C   0  0
    6.2115   -2.1237    0.0000 C   0  0
    5.4046   -2.2954    0.0000 C   0  0
    4.8524   -1.6824    0.0000 C   0  0
    4.0447   -1.8525    0.0000 N   0  0
    3.4931   -1.2383    0.0000 C   0  0
    3.6980   -0.6110    0.0000 O   0  0
    2.6853   -1.4085    0.0000 O   0  0
    2.1337   -0.7943    0.0000 C   0  0
    1.3273   -0.9642    0.0000 C   0  0
    0.7145   -0.4125    0.0000 C   0  0
    0.7145    0.4125    0.0000 C   0  0
    0.0000    0.8250    0.0000 C   0  0
   -0.7145    0.4125    0.0000 C   0  0
   -0.7145   -0.4125    0.0000 C   0  0
    0.0000   -0.8250    0.0000 C   0  0
    0.1713   -1.6316    0.0000 C   0  0
   -0.3136   -2.2984    0.0000 C   0  0
    0.0220   -3.0521    0.0000 C   0  0
    0.8425   -3.1383    0.0000 C   0  0
    1.3274   -2.4708    0.0000 C   0  0
    0.9918   -1.7178    0.0000 C   0  0
    5.1073   -0.8977    0.0000 C   0  0
    3.8739   -2.3753    0.0000 H   0  0
   14.9263    0.9730    0.0000 H   0  0
   15.4867    1.7433    0.0000 H   0  0
   12.4997    0.6731    0.0000 H   0  0
    8.9762   -0.8852    0.0000 H   0  0
    7.5547   -0.7297    0.0000 H   0  0
  1  2  1  0
  2  3  1  0
  2  4  1  0
  2  5  1  0
  5  6  1  0
  6  7  2  0
  7  8  1  0
  7 30  1  0
  8  9  1  0
  8 61  1  0
  9 10  2  0
  9 11  1  0
 11 12  1  0
 11 60  1  0
 12 13  2  0
 13 14  1  0
 14 15  2  0
 15 16  1  0
 15 28  1  0
 16 17  1  0
 16 59  1  0
 17 18  2  0
 18 19  1  0
 19 20  2  0
 20 21  1  0
 21 22  2  0
 22 23  1  0
 23 24  2  0
 24 25  1  0
 24 26  1  0
 25 57  1  0
 25 58  1  0
 26 27  2  0
 27 17  1  0
 27 21  1  0
 28 29  2  0
 29 12  1  0
 30 31  1  0
 30 32  1  0
 31  5  2  0
 32 33  2  0
 33 34  1  0
 34 35  2  0
 35 36  1  0
 36 37  1  0
 36 55  2  0
 37 38  1  0
 37 56  1  0
 38 39  2  0
 38 40  1  0
 40 41  1  0
 41 42  1  0
 42 43  1  0
 43 44  2  0
 44 45  1  0
 45 46  2  0
 46 47  1  0
 47 48  2  0
 48 43  1  0
 48 49  1  0
 49 50  2  0
 50 51  1  0
 51 52  2  0
 52 53  1  0
 53 54  2  0
 54 42  1  0
 54 49  1  0
 55 32  1  0
M  END
> <CMPD_CHEMBLID>
CHEMBL2403817

> <STANDARD_TYPE>
IC50

> <RELATION>
=

> <STANDARD_VALUE>
1273

> <STANDARD_UNITS>
nM

> <Molecular_Weight>
729.82826

$$$$

  SciTegic11272012012D

 45 48  0  0  0  0            999 V2000
    1.4276   -1.4867    0.0000 C   0  0
    1.4285   -0.8267    0.0000 N   0  0
    0.7144   -0.4125    0.0000 C   0  0
    0.7144    0.4125    0.0000 N   0  0
    0.0000    0.8250    0.0000 C   0  0
   -0.7144    0.4125    0.0000 N   0  0
   -0.7144   -0.4125    0.0000 C   0  0
    0.0000   -0.8250    0.0000 N   0  0
   -1.4293   -0.8252    0.0000 C   0  0
   -1.4280   -1.6502    0.0000 C   0  0
   -2.1418   -2.0638    0.0000 C   0  0
   -2.8569   -1.6525    0.0000 C   0  0
   -2.8583   -0.8275    0.0000 N   0  0
   -2.1444   -0.4139    0.0000 C   0  0
   -2.1475    0.4116    0.0000 O   0  0
   -2.8636    0.8221    0.0000 C   0  0
   -2.8678    1.6471    0.0000 C   0  0
   -3.5844    2.0559    0.0000 C   0  0
   -4.2968    1.6398    0.0000 C   0  0
   -4.8700    1.9669    0.0000 F   0  0
   -4.2926    0.8149    0.0000 C   0  0
   -3.5760    0.4060    0.0000 C   0  0
   -5.0044    0.3970    0.0000 C   0  0
   -5.5782    0.7231    0.0000 O   0  0
   -4.9991   -0.4284    0.0000 N   0  0
   -5.7110   -0.8462    0.0000 C   0  0
   -6.4276   -0.4374    0.0000 C   0  0
   -7.1399   -0.8535    0.0000 C   0  0
   -7.1357   -1.6785    0.0000 C   0  0
   -6.4191   -2.0873    0.0000 C   0  0
   -5.7068   -1.6712    0.0000 C   0  0
   -4.9907   -2.0818    0.0000 N   0  0
   -4.4202   -1.7499    0.0000 C   0  0
   -4.9877   -2.9072    0.0000 C   0  0
   -4.2716   -3.3178    0.0000 C   0  0
   -4.2686   -4.1432    0.0000 C   0  0
   -3.5525   -4.5538    0.0000 N   0  0
   -3.5500   -5.2138    0.0000 C   0  0
   -2.9820   -4.2219    0.0000 C   0  0
   -7.8569   -0.4445    0.0000 C   0  0
   -7.8607    0.2155    0.0000 F   0  0
   -8.4267   -0.7776    0.0000 F   0  0
   -8.4303   -0.1177    0.0000 F   0  0
   -4.5209   -0.7001    0.0000 H   0  0
    1.9053   -0.5525    0.0000 H   0  0
  1  2  1  0
  2  3  1  0
  2 45  1  0
  3  4  2  0
  4  5  1  0
  5  6  2  0
  6  7  1  0
  7  8  2  0
  7  9  1  0
  8  3  1  0
  9 10  2  0
 10 11  1  0
 11 12  2  0
 12 13  1  0
 13 14  2  0
 14  9  1  0
 14 15  1  0
 15 16  1  0
 16 17  2  0
 17 18  1  0
 18 19  2  0
 19 20  1  0
 19 21  1  0
 21 22  2  0
 21 23  1  0
 22 16  1  0
 23 24  2  0
 23 25  1  0
 25 26  1  0
 25 44  1  0
 26 27  2  0
 27 28  1  0
 28 29  2  0
 28 40  1  0
 29 30  1  0
 30 31  2  0
 31 26  1  0
 31 32  1  0
 32 33  1  0
 32 34  1  0
 34 35  1  0
 35 36  1  0
 36 37  1  0
 37 38  1  0
 37 39  1  0
 40 41  1  0
 40 42  1  0
 40 43  1  0
M  END
> <CMPD_CHEMBLID>
CHEMBL373882

> <STANDARD_TYPE>
IC50

> <RELATION>
=

> <STANDARD_VALUE>
1280

> <STANDARD_UNITS>
nM

> <Molecular_Weight>
598.59451

$$$$

  SciTegic11272012012D

 30 33  0  0  0  0            999 V2000
    1.4302   -0.8237    0.0000 N   0  0
    0.7144   -0.4125    0.0000 C   0  0
    0.7144    0.4125    0.0000 N   0  0
    0.0000    0.8250    0.0000 C   0  0
   -0.7144    0.4125    0.0000 N   0  0
   -0.7144   -0.4125    0.0000 C   0  0
    0.0000   -0.8250    0.0000 C   0  0
   -0.1713   -1.6316    0.0000 C   0  0
   -0.9918   -1.7178    0.0000 N   0  0
   -1.3273   -0.9641    0.0000 N   0  0
   -2.1337   -0.7943    0.0000 C   0  0
   -2.6852   -1.4084    0.0000 C   0  0
   -3.4930   -1.2383    0.0000 C   0  0
   -4.0452   -1.8513    0.0000 C   0  0
   -4.8521   -1.6797    0.0000 C   0  0
   -5.1069   -0.8950    0.0000 C   0  0
   -4.5548   -0.2820    0.0000 N   0  0
   -3.7478   -0.4536    0.0000 C   0  0
    0.3811   -2.2449    0.0000 C   0  0
    1.1959   -2.1344    0.0000 C   0  0
    1.7002   -2.7873    0.0000 C   0  0
    1.3870   -3.5505    0.0000 C   0  0
    1.7905   -4.0728    0.0000 Cl  0  0
    0.5694   -3.6609    0.0000 C   0  0
    0.2544   -4.4239    0.0000 O   0  0
    0.0651   -3.0080    0.0000 C   0  0
   -0.2907   -4.4966    0.0000 H   0  0
   -4.7246    0.2411    0.0000 H   0  0
    1.9061   -0.5481    0.0000 H   0  0
    1.4311   -1.3737    0.0000 H   0  0
  1  2  1  0
  1 29  1  0
  1 30  1  0
  2  3  2  0
  3  4  1  0
  4  5  2  0
  5  6  1  0
  6  7  2  0
  7  2  1  0
  7  8  1  0
  8  9  2  0
  8 19  1  0
  9 10  1  0
 10  6  1  0
 10 11  1  0
 11 12  1  0
 12 13  1  0
 13 14  1  0
 14 15  1  0
 15 16  1  0
 16 17  1  0
 17 18  1  0
 17 28  1  0
 18 13  1  0
 19 20  2  0
 20 21  1  0
 21 22  2  0
 22 23  1  0
 22 24  1  0
 24 25  1  0
 24 26  2  0
 25 27  1  0
 26 19  1  0
M  END
> <CMPD_CHEMBLID>
CHEMBL1241943

> <STANDARD_TYPE>
IC50

> <RELATION>
=

> <STANDARD_VALUE>
1280

> <STANDARD_UNITS>
nM

> <Molecular_Weight>
372.85194

$$$$

  SciTegic11272012012D

 28 31  0  0  0  0            999 V2000
    2.6366   -4.7822    0.0000 C   0  0
    2.1023   -4.3948    0.0000 C   0  0
    2.1873   -3.5736    0.0000 C   0  0
    1.5190   -3.0891    0.0000 C   0  0
    1.6038   -2.2694    0.0000 N   0  0
    2.3184   -1.8569    0.0000 C   0  0
    2.1468   -1.0499    0.0000 C   0  0
    1.3273   -0.9642    0.0000 N   0  0
    0.7145   -0.4125    0.0000 C   0  0
    0.7145    0.4125    0.0000 C   0  0
    1.2861    0.7425    0.0000 O   0  0
    0.0000    0.8250    0.0000 N   0  0
   -0.7145    0.4125    0.0000 C   0  0
   -1.2861    0.7425    0.0000 O   0  0
   -0.7145   -0.4125    0.0000 N   0  0
   -1.2861   -0.7425    0.0000 C   0  0
    0.0000   -0.8250    0.0000 C   0  0
    0.1713   -1.6316    0.0000 N   0  0
    0.9918   -1.7179    0.0000 C   0  0
    3.0724   -2.1926    0.0000 C   0  0
    3.7005   -1.6563    0.0000 C   0  0
    4.4773   -1.9342    0.0000 C   0  0
    4.6251   -2.7458    0.0000 C   0  0
    5.2465   -2.9682    0.0000 F   0  0
    3.9959   -3.2796    0.0000 C   0  0
    3.2192   -3.0017    0.0000 C   0  0
    2.7158   -3.4286    0.0000 C   0  0
    0.0000    1.3750    0.0000 H   0  0
  1  2  1  0
  2  3  1  0
  3  4  1  0
  4  5  1  0
  5  6  1  0
  6  7  2  0
  6 20  1  0
  7  8  1  0
  8  9  1  0
  9 10  1  0
 10 11  2  0
 10 12  1  0
 12 13  1  0
 12 28  1  0
 13 14  2  0
 13 15  1  0
 15 16  1  0
 15 17  1  0
 17  9  2  0
 17 18  1  0
 18 19  2  0
 19  5  1  0
 19  8  1  0
 20 21  2  0
 21 22  1  0
 22 23  2  0
 23 24  1  0
 23 25  1  0
 25 26  2  0
 26 20  1  0
 26 27  1  0
M  END
> <CMPD_CHEMBLID>
CHEMBL2333595

> <STANDARD_TYPE>
IC50

> <RELATION>
=

> <STANDARD_VALUE>
1282

> <STANDARD_UNITS>
nM

> <Molecular_Weight>
369.3928

$$$$

  SciTegic11272012012D

 26 29  0  0  0  0            999 V2000
    1.4285   -0.8267    0.0000 O   0  0
    0.7145   -0.4125    0.0000 C   0  0
    0.7145    0.4125    0.0000 C   0  0
    0.0000    0.8250    0.0000 C   0  0
   -0.7145    0.4125    0.0000 C   0  0
   -1.4987    0.6674    0.0000 N   0  0
   -1.9836    0.0000    0.0000 C   0  0
   -1.4987   -0.6674    0.0000 C   0  0
   -0.7145   -0.4125    0.0000 C   0  0
    0.0000   -0.8250    0.0000 C   0  0
   -2.8076   -0.0017    0.0000 C   0  0
   -3.1386    0.5693    0.0000 O   0  0
   -3.2193   -0.7172    0.0000 C   0  0
   -2.8752   -1.4593    0.0000 C   0  0
   -3.4861   -2.0131    0.0000 C   0  0
   -3.4832   -2.8381    0.0000 C   0  0
   -4.1962   -3.2531    0.0000 C   0  0
   -4.1950   -4.0785    0.0000 O   0  0
   -4.9122   -2.8431    0.0000 C   0  0
   -4.9150   -2.0180    0.0000 C   0  0
   -4.2020   -1.6031    0.0000 C   0  0
   -4.0335   -0.7959    0.0000 N   0  0
   -4.4006   -0.3863    0.0000 H   0  0
   -4.6708   -4.3545    0.0000 H   0  0
   -1.6686    1.1906    0.0000 H   0  0
    1.4277   -1.3767    0.0000 H   0  0
  1  2  1  0
  1 26  1  0
  2  3  2  0
  3  4  1  0
  4  5  2  0
  5  6  1  0
  6  7  1  0
  6 25  1  0
  7  8  2  0
  7 11  1  0
  8  9  1  0
  9  5  1  0
  9 10  2  0
 10  2  1  0
 11 12  2  0
 11 13  1  0
 13 14  2  0
 14 15  1  0
 15 16  2  0
 16 17  1  0
 17 18  1  0
 17 19  2  0
 18 24  1  0
 19 20  1  0
 20 21  2  0
 21 15  1  0
 21 22  1  0
 22 13  1  0
 22 23  1  0
M  END
> <CMPD_CHEMBLID>
CHEMBL377193

> <STANDARD_TYPE>
IC50

> <RELATION>
=

> <STANDARD_VALUE>
1300

> <STANDARD_UNITS>
nM

> <Molecular_Weight>
292.28878

$$$$

  SciTegic11272012012D

 25 28  0  0  0  0            999 V2000
    2.2541   -3.0993    0.0000 C   0  0
    2.6435   -2.5664    0.0000 C   0  0
    3.2996   -2.6374    0.0000 C   0  0
    2.3108   -1.8125    0.0000 N   0  0
    1.5040   -1.6398    0.0000 N   0  0
    1.4293   -0.8252    0.0000 C   0  0
    0.7145   -0.4125    0.0000 C   0  0
    0.7145    0.4125    0.0000 C   0  0
    0.0000    0.8250    0.0000 C   0  0
   -0.7145    0.4125    0.0000 C   0  0
   -1.4290    0.8250    0.0000 O   0  0
   -2.1435    0.4125    0.0000 C   0  0
   -2.1435   -0.4125    0.0000 C   0  0
   -1.4290   -0.8250    0.0000 O   0  0
   -0.7145   -0.4125    0.0000 C   0  0
    0.0000   -0.8250    0.0000 C   0  0
    2.1728   -0.4850    0.0000 C   0  0
    2.4289    0.2993    0.0000 C   0  0
    1.8786    0.9146    0.0000 N   0  0
    3.2361    0.4697    0.0000 N   0  0
    3.7873   -0.1443    0.0000 C   0  0
    3.5312   -0.9285    0.0000 N   0  0
    2.7239   -1.0989    0.0000 C   0  0
    2.0501    1.4372    0.0000 H   0  0
    1.3403    0.8020    0.0000 H   0  0
  1  2  1  0
  2  3  1  0
  2  4  1  0
  4  5  1  0
  5  6  2  0
  6  7  1  0
  6 17  1  0
  7  8  2  0
  8  9  1  0
  9 10  2  0
 10 11  1  0
 11 12  1  0
 12 13  1  0
 13 14  1  0
 14 15  1  0
 15 10  1  0
 15 16  2  0
 16  7  1  0
 17 18  2  0
 18 19  1  0
 18 20  1  0
 19 24  1  0
 19 25  1  0
 20 21  2  0
 21 22  1  0
 22 23  2  0
 23  4  1  0
 23 17  1  0
M  END
> <CMPD_CHEMBLID>
CHEMBL1241588

> <STANDARD_TYPE>
IC50

> <RELATION>
=

> <STANDARD_VALUE>
1300

> <STANDARD_UNITS>
nM

> <Molecular_Weight>
311.33848

$$$$

  SciTegic11272012012D

 32 35  0  0  0  0            999 V2000
    0.8551   -1.9812    0.0000 O   0  0
    1.4273   -1.6521    0.0000 C   0  0
    1.4285   -0.8267    0.0000 N   0  0
    0.7144   -0.4125    0.0000 C   0  0
    0.7144    0.4125    0.0000 C   0  0
    0.0000    0.8250    0.0000 C   0  0
   -0.7144    0.4125    0.0000 C   0  0
   -0.7144   -0.4125    0.0000 C   0  0
   -1.4285   -0.8267    0.0000 N   0  0
   -1.4273   -1.6521    0.0000 C   0  0
   -2.1403   -2.0672    0.0000 N   0  0
   -2.1375   -2.8922    0.0000 C   0  0
   -1.4216   -3.3022    0.0000 C   0  0
   -0.7086   -2.8872    0.0000 C   0  0
   -0.7114   -2.0622    0.0000 N   0  0
    0.0077   -3.2975    0.0000 C   0  0
    0.0119   -4.1225    0.0000 C   0  0
    0.7285   -4.5314    0.0000 C   0  0
    1.4408   -4.1153    0.0000 C   0  0
    1.4367   -3.2903    0.0000 N   0  0
    0.7201   -2.8814    0.0000 C   0  0
    0.0000   -0.8250    0.0000 C   0  0
    2.1413   -2.0663    0.0000 C   0  0
    2.1414   -2.8913    0.0000 C   0  0
    2.8558   -3.3038    0.0000 C   0  0
    3.5703   -2.8914    0.0000 C   0  0
    3.5703   -2.0664    0.0000 C   0  0
    2.8559   -1.6538    0.0000 C   0  0
    4.2852   -3.3041    0.0000 C   0  0
    4.8567   -3.6341    0.0000 N   0  0
   -1.9053   -0.5525    0.0000 H   0  0
    1.9053   -0.5525    0.0000 H   0  0
  1  2  2  0
  2  3  1  0
  2 23  1  0
  3  4  1  0
  3 32  1  0
  4  5  2  0
  5  6  1  0
  6  7  2  0
  7  8  1  0
  8  9  1  0
  8 22  2  0
  9 10  1  0
  9 31  1  0
 10 11  2  0
 11 12  1  0
 12 13  2  0
 13 14  1  0
 14 15  2  0
 14 16  1  0
 15 10  1  0
 16 17  2  0
 17 18  1  0
 18 19  2  0
 19 20  1  0
 20 21  2  0
 21 16  1  0
 22  4  1  0
 23 24  2  0
 24 25  1  0
 25 26  2  0
 26 27  1  0
 26 29  1  0
 27 28  2  0
 28 23  1  0
 29 30  3  0
M  END
> <CMPD_CHEMBLID>
CHEMBL58580

> <STANDARD_TYPE>
IC50

> <RELATION>
=

> <STANDARD_VALUE>
1300

> <STANDARD_UNITS>
nM

> <Molecular_Weight>
392.41274

$$$$

  SciTegic11272012012D

 24 26  0  0  0  0            999 V2000
    1.2861   -0.7425    0.0000 I   0  0
    0.7145   -0.4125    0.0000 C   0  0
    0.7145    0.4125    0.0000 C   0  0
    0.0000    0.8250    0.0000 C   0  0
   -0.7145    0.4125    0.0000 C   0  0
   -0.7145   -0.4125    0.0000 C   0  0
    0.0000   -0.8250    0.0000 C   0  0
   -0.0017   -1.6504    0.0000 C   0  0
    0.5693   -1.9814    0.0000 O   0  0
   -0.7171   -2.0622    0.0000 N   0  0
   -0.7189   -2.8876    0.0000 C   0  0
   -1.3863   -3.3605    0.0000 N   0  0
   -1.1314   -4.1451    0.0000 N   0  0
   -0.3064   -4.1451    0.0000 C   0  0
    0.1794   -4.8108    0.0000 C   0  0
    1.0002   -4.7234    0.0000 C   0  0
    1.4868   -5.3901    0.0000 C   0  0
    2.3073   -5.3039    0.0000 C   0  0
    2.7922   -5.9714    0.0000 C   0  0
    2.4567   -6.7250    0.0000 C   0  0
    1.6363   -6.8113    0.0000 C   0  0
    1.1513   -6.1439    0.0000 C   0  0
   -0.0514   -3.3605    0.0000 S   0  0
   -1.1930   -1.7863    0.0000 H   0  0
  1  2  1  0
  2  3  2  0
  3  4  1  0
  4  5  2  0
  5  6  1  0
  6  7  2  0
  7  2  1  0
  7  8  1  0
  8  9  2  0
  8 10  1  0
 10 11  1  0
 10 24  1  0
 11 12  2  0
 12 13  1  0
 13 14  2  0
 14 15  1  0
 14 23  1  0
 15 16  1  0
 16 17  1  0
 17 18  2  0
 18 19  1  0
 19 20  2  0
 20 21  1  0
 21 22  2  0
 22 17  1  0
 23 11  1  0
M  END
> <CMPD_CHEMBLID>
CHEMBL207986

> <STANDARD_TYPE>
Ki

> <RELATION>
=

> <STANDARD_VALUE>
1300

> <STANDARD_UNITS>
nM

> <Molecular_Weight>
435.28203

$$$$

  SciTegic11272012012D

 25 27  0  0  0  0            999 V2000
   -0.1742   -2.8725    0.0000 C   0  0
   -0.3790   -2.2450    0.0000 C   0  0
   -1.0247   -2.1088    0.0000 C   0  0
    0.1713   -1.6316    0.0000 N   0  0
    0.9918   -1.7179    0.0000 N   0  0
    1.3273   -0.9642    0.0000 C   0  0
    2.1348   -0.7925    0.0000 C   0  0
    2.7291   -1.3607    0.0000 C   0  0
    3.5209   -1.1288    0.0000 C   0  0
    3.9982   -1.5846    0.0000 F   0  0
    3.7159   -0.3272    0.0000 C   0  0
    4.5077   -0.0936    0.0000 C   0  0
    4.6628    0.5479    0.0000 O   0  0
    3.1193    0.2426    0.0000 C   0  0
    3.2754    0.8839    0.0000 F   0  0
    2.3275    0.0107    0.0000 C   0  0
    0.7145   -0.4125    0.0000 C   0  0
    0.7145    0.4125    0.0000 C   0  0
    1.4285    0.8267    0.0000 N   0  0
    0.0000    0.8250    0.0000 N   0  0
   -0.7145    0.4125    0.0000 C   0  0
   -0.7145   -0.4125    0.0000 N   0  0
    0.0000   -0.8250    0.0000 C   0  0
    1.4277    1.3767    0.0000 H   0  0
    1.9053    0.5525    0.0000 H   0  0
  1  2  1  0
  2  3  1  0
  2  4  1  0
  4  5  1  0
  5  6  2  0
  6  7  1  0
  6 17  1  0
  7  8  2  0
  8  9  1  0
  9 10  1  0
  9 11  2  0
 11 12  1  0
 11 14  1  0
 12 13  2  0
 14 15  1  0
 14 16  2  0
 16  7  1  0
 17 18  2  0
 18 19  1  0
 18 20  1  0
 19 24  1  0
 19 25  1  0
 20 21  2  0
 21 22  1  0
 22 23  2  0
 23  4  1  0
 23 17  1  0
M  END
> <CMPD_CHEMBLID>
CHEMBL1241861

> <STANDARD_TYPE>
IC50

> <RELATION>
=

> <STANDARD_VALUE>
1300

> <STANDARD_UNITS>
nM

> <Molecular_Weight>
317.29343

$$$$

  SciTegic11272012012D

 28 31  0  0  0  0            999 V2000
    0.5229   -3.1659    0.0000 Cl  0  0
   -0.1229   -3.0297    0.0000 C   0  0
   -0.3789   -2.2450    0.0000 C   0  0
    0.1713   -1.6316    0.0000 N   0  0
    0.9918   -1.7178    0.0000 N   0  0
    1.3273   -0.9641    0.0000 C   0  0
    0.7144   -0.4125    0.0000 C   0  0
    0.7144    0.4125    0.0000 C   0  0
    1.4285    0.8267    0.0000 N   0  0
    1.4273    1.6521    0.0000 C   0  0
    2.1413    2.0663    0.0000 C   0  0
    2.1413    2.8914    0.0000 C   0  0
    2.8558    3.3039    0.0000 C   0  0
    3.5703    2.8914    0.0000 C   0  0
    3.5703    2.0664    0.0000 C   0  0
    2.8559    1.6539    0.0000 C   0  0
    0.0000    0.8250    0.0000 N   0  0
   -0.7144    0.4125    0.0000 C   0  0
   -0.7144   -0.4125    0.0000 N   0  0
    0.0000   -0.8250    0.0000 C   0  0
   -0.6741   -3.6442    0.0000 C   0  0
   -0.4193   -4.4289    0.0000 C   0  0
   -0.9714   -5.0419    0.0000 C   0  0
   -1.7784   -4.8702    0.0000 C   0  0
   -2.2201   -5.3606    0.0000 Br  0  0
   -2.0332   -4.0855    0.0000 C   0  0
   -1.4810   -3.4726    0.0000 C   0  0
    1.9052    0.5525    0.0000 H   0  0
  1  2  1  0
  2  3  1  0
  2 21  1  0
  3  4  1  0
  4  5  1  0
  5  6  2  0
  6  7  1  0
  7  8  2  0
  8  9  1  0
  8 17  1  0
  9 10  1  0
  9 28  1  0
 10 11  1  0
 11 12  2  0
 12 13  1  0
 13 14  2  0
 14 15  1  0
 15 16  2  0
 16 11  1  0
 17 18  2  0
 18 19  1  0
 19 20  2  0
 20  4  1  0
 20  7  1  0
 21 22  2  0
 22 23  1  0
 23 24  2  0
 24 25  1  0
 24 26  1  0
 26 27  2  0
 27 21  1  0
M  END
> <CMPD_CHEMBLID>
CHEMBL2397803

> <STANDARD_TYPE>
Ki

> <RELATION>
=

> <STANDARD_VALUE>
1308

> <STANDARD_UNITS>
nM

> <Molecular_Weight>
442.73948

$$$$

  SciTegic11272012012D

 27 30  0  0  0  0            999 V2000
    1.5882   -4.1175    0.0000 Cl  0  0
    0.9422   -3.9824    0.0000 C   0  0
    0.3921   -4.5973    0.0000 C   0  0
   -0.4154   -4.4284    0.0000 C   0  0
   -0.6729   -3.6447    0.0000 C   0  0
   -0.1229   -3.0297    0.0000 C   0  0
   -0.3789   -2.2450    0.0000 N   0  0
    0.1713   -1.6316    0.0000 C   0  0
    0.9918   -1.7178    0.0000 N   0  0
    1.3273   -0.9641    0.0000 N   0  0
    0.7144   -0.4125    0.0000 C   0  0
    0.7144    0.4125    0.0000 N   0  0
    0.0000    0.8250    0.0000 C   0  0
   -0.7144    0.4125    0.0000 N   0  0
   -0.7144   -0.4125    0.0000 C   0  0
   -1.4302   -0.8238    0.0000 N   0  0
   -2.1444   -0.4100    0.0000 C   0  0
   -2.8604   -0.8200    0.0000 C   0  0
   -3.5734   -0.4051    0.0000 C   0  0
   -3.5706    0.4199    0.0000 C   0  0
   -2.8546    0.8299    0.0000 C   0  0
   -2.1416    0.4150    0.0000 C   0  0
    0.0000   -0.8250    0.0000 C   0  0
    0.6847   -3.1986    0.0000 C   0  0
   -1.4311   -1.3738    0.0000 H   0  0
    1.2668   -2.1941    0.0000 H   0  0
   -0.9171   -2.1315    0.0000 H   0  0
  1  2  1  0
  2  3  2  0
  3  4  1  0
  4  5  2  0
  5  6  1  0
  6  7  1  0
  6 24  2  0
  7  8  1  0
  7 27  1  0
  8  9  1  0
  9 10  1  0
  9 26  1  0
 10 11  2  0
 11 12  1  0
 12 13  2  0
 13 14  1  0
 14 15  2  0
 15 16  1  0
 15 23  1  0
 16 17  1  0
 16 25  1  0
 17 18  2  0
 18 19  1  0
 19 20  2  0
 20 21  1  0
 21 22  2  0
 22 17  1  0
 23  8  2  0
 23 11  1  0
 24  2  1  0
M  END
> <CMPD_CHEMBLID>
CHEMBL121260

> <STANDARD_TYPE>
IC50

> <RELATION>
=

> <STANDARD_VALUE>
1360

> <STANDARD_UNITS>
nM

> <Molecular_Weight>
336.77832

$$$$

  SciTegic11272012012D

 28 31  0  0  0  0            999 V2000
    1.5882   -4.1175    0.0000 Cl  0  0
    0.9422   -3.9824    0.0000 C   0  0
    0.3921   -4.5973    0.0000 C   0  0
   -0.4154   -4.4284    0.0000 C   0  0
   -0.6729   -3.6447    0.0000 C   0  0
   -0.1229   -3.0297    0.0000 C   0  0
   -0.3789   -2.2450    0.0000 N   0  0
    0.1713   -1.6316    0.0000 C   0  0
    0.9918   -1.7178    0.0000 N   0  0
    1.3273   -0.9641    0.0000 N   0  0
    0.7144   -0.4125    0.0000 C   0  0
    0.7144    0.4125    0.0000 N   0  0
    0.0000    0.8250    0.0000 C   0  0
   -0.7144    0.4125    0.0000 N   0  0
   -0.7144   -0.4125    0.0000 C   0  0
   -1.4302   -0.8238    0.0000 N   0  0
   -2.1444   -0.4100    0.0000 C   0  0
   -2.8604   -0.8200    0.0000 C   0  0
   -3.5734   -0.4051    0.0000 C   0  0
   -3.5706    0.4199    0.0000 C   0  0
   -2.8546    0.8299    0.0000 C   0  0
   -2.8524    1.4899    0.0000 Br  0  0
   -2.1416    0.4150    0.0000 C   0  0
    0.0000   -0.8250    0.0000 C   0  0
    0.6847   -3.1986    0.0000 C   0  0
   -1.4311   -1.3738    0.0000 H   0  0
    1.2668   -2.1941    0.0000 H   0  0
   -0.9171   -2.1315    0.0000 H   0  0
  1  2  1  0
  2  3  2  0
  3  4  1  0
  4  5  2  0
  5  6  1  0
  6  7  1  0
  6 25  2  0
  7  8  1  0
  7 28  1  0
  8  9  1  0
  9 10  1  0
  9 27  1  0
 10 11  2  0
 11 12  1  0
 12 13  2  0
 13 14  1  0
 14 15  2  0
 15 16  1  0
 15 24  1  0
 16 17  1  0
 16 26  1  0
 17 18  2  0
 18 19  1  0
 19 20  2  0
 20 21  1  0
 21 22  1  0
 21 23  2  0
 23 17  1  0
 24  8  2  0
 24 11  1  0
 25  2  1  0
M  END
> <CMPD_CHEMBLID>
CHEMBL120319

> <STANDARD_TYPE>
IC50

> <RELATION>
=

> <STANDARD_VALUE>
1360

> <STANDARD_UNITS>
nM

> <Molecular_Weight>
415.67438

$$$$

  SciTegic11272012012D

 45 50  0  0  0  0            999 V2000
   -0.3241   -4.9816    0.0000 C   0  0
   -0.1222   -4.3533    0.0000 C   0  0
   -0.6094   -3.6874    0.0000 N   0  0
   -0.1229   -3.0298    0.0000 C   0  0
   -0.3790   -2.2450    0.0000 C   0  0
    0.1713   -1.6316    0.0000 C   0  0
    0.9918   -1.7179    0.0000 C   0  0
    1.3218   -2.2894    0.0000 O   0  0
    1.3273   -0.9642    0.0000 N   0  0
    0.7145   -0.4125    0.0000 C   0  0
    0.7145    0.4125    0.0000 C   0  0
    0.0000    0.8250    0.0000 C   0  0
   -0.7145    0.4125    0.0000 C   0  0
   -0.7145   -0.4125    0.0000 C   0  0
    0.0000   -0.8250    0.0000 C   0  0
   -1.4294    0.8252    0.0000 S   0  0
   -2.0008    0.4951    0.0000 O   0  0
   -2.0011    1.1550    0.0000 O   0  0
   -1.4299    1.6507    0.0000 C   0  0
   -2.1448    2.0634    0.0000 C   0  0
   -2.1465    2.8885    0.0000 C   0  0
   -1.5756    3.2197    0.0000 Cl  0  0
   -2.8618    3.2995    0.0000 C   0  0
   -3.5755    2.8856    0.0000 C   0  0
   -3.5738    2.0606    0.0000 C   0  0
   -2.8585    1.6495    0.0000 C   0  0
   -2.8571    0.9895    0.0000 Cl  0  0
    0.6589   -3.2707    0.0000 C   0  0
    1.1892   -2.8779    0.0000 C   0  0
    0.6616   -4.0957    0.0000 C   0  0
    1.3288   -4.5793    0.0000 C   0  0
    1.9314   -4.3099    0.0000 O   0  0
    1.2441   -5.4004    0.0000 N   0  0
    0.5308   -5.8008    0.0000 C   0  0
    0.7021   -6.6078    0.0000 C   0  0
    1.5226   -6.6942    0.0000 C   0  0
    1.8583   -5.9406    0.0000 C   0  0
    2.6634   -5.7649    0.0000 C   0  0
    3.2194   -6.3750    0.0000 N   0  0
    4.0315   -6.2766    0.0000 C   0  0
    4.3701   -7.0289    0.0000 C   0  0
    3.7592   -7.5834    0.0000 C   0  0
    3.0430   -7.1738    0.0000 C   0  0
    1.8654   -0.8498    0.0000 H   0  0
   -1.1594   -3.6860    0.0000 H   0  0
  1  2  1  0
  2  3  1  0
  3  4  1  0
  3 45  1  0
  4  5  1  0
  4 28  2  0
  5  6  2  0
  6  7  1  0
  7  8  2  0
  7  9  1  0
  9 10  1  0
  9 44  1  0
 10 11  2  0
 11 12  1  0
 12 13  2  0
 13 14  1  0
 13 16  1  0
 14 15  2  0
 15  6  1  0
 15 10  1  0
 16 17  2  0
 16 18  2  0
 16 19  1  0
 19 20  1  0
 20 21  2  0
 21 22  1  0
 21 23  1  0
 23 24  2  0
 24 25  1  0
 25 26  2  0
 26 20  1  0
 26 27  1  0
 28 29  1  0
 28 30  1  0
 30  2  2  0
 30 31  1  0
 31 32  2  0
 31 33  1  0
 33 34  1  0
 34 35  1  0
 35 36  1  0
 36 37  1  0
 37 33  1  0
 37 38  1  0
 38 39  1  0
 39 40  1  0
 40 41  1  0
 41 42  1  0
 42 43  1  0
 43 39  1  0
M  END
> <CMPD_CHEMBLID>
CHEMBL450786

> <STANDARD_TYPE>
IC50

> <RELATION>
=

> <STANDARD_VALUE>
1400

> <STANDARD_UNITS>
nM

> <Molecular_Weight>
641.60776

$$$$

  SciTegic11272012012D

 26 30  0  0  0  0            999 V2000
    1.4302   -0.8237    0.0000 N   0  0
    0.7145   -0.4125    0.0000 C   0  0
    0.7145    0.4125    0.0000 N   0  0
    0.0000    0.8250    0.0000 C   0  0
   -0.7145    0.4125    0.0000 N   0  0
   -0.7145   -0.4125    0.0000 C   0  0
    0.0000   -0.8250    0.0000 C   0  0
   -0.1713   -1.6316    0.0000 C   0  0
   -0.9918   -1.7178    0.0000 N   0  0
   -1.3273   -0.9642    0.0000 N   0  0
   -2.1347   -0.7925    0.0000 C   0  0
   -2.7753   -1.2969    0.0000 C   0  0
   -3.4553   -0.8297    0.0000 C   0  0
   -3.2211   -0.0386    0.0000 C   0  0
   -2.3964   -0.0169    0.0000 C   0  0
    0.3811   -2.2450    0.0000 C   0  0
    1.1959   -2.1345    0.0000 C   0  0
    1.7002   -2.7874    0.0000 C   0  0
    1.3870   -3.5506    0.0000 N   0  0
    1.7446   -4.2936    0.0000 C   0  0
    1.1480   -4.8635    0.0000 C   0  0
    0.4216   -4.4722    0.0000 N   0  0
    0.5694   -3.6610    0.0000 C   0  0
    0.0651   -3.0080    0.0000 C   0  0
    1.9062   -0.5481    0.0000 H   0  0
    1.4312   -1.3738    0.0000 H   0  0
  1  2  1  0
  1 25  1  0
  1 26  1  0
  2  3  2  0
  3  4  1  0
  4  5  2  0
  5  6  1  0
  6  7  2  0
  7  2  1  0
  7  8  1  0
  8  9  2  0
  8 16  1  0
  9 10  1  0
 10  6  1  0
 10 11  1  0
 11 12  1  0
 12 13  1  0
 13 14  1  0
 14 15  1  0
 15 11  1  0
 16 17  1  0
 17 18  2  0
 18 19  1  0
 19 20  1  0
 20 21  2  0
 21 22  1  0
 22 23  2  0
 23 19  1  0
 23 24  1  0
 24 16  2  0
M  END
> <CMPD_CHEMBLID>
CHEMBL1241675

> <STANDARD_TYPE>
IC50

> <RELATION>
=

> <STANDARD_VALUE>
1400

> <STANDARD_UNITS>
nM

> <Molecular_Weight>
319.36378

$$$$

  SciTegic11272012012D

 31 34  0  0  0  0            999 V2000
    2.1455    0.2461    0.0000 C   0  0
    2.1445   -0.4139    0.0000 C   0  0
    1.4293   -0.8252    0.0000 C   0  0
    1.4281   -1.6502    0.0000 C   0  0
    0.8560   -1.9793    0.0000 O   0  0
    2.1419   -2.0639    0.0000 N   0  0
    2.8570   -1.6525    0.0000 C   0  0
    2.8583   -0.8275    0.0000 C   0  0
    2.1405   -2.8893    0.0000 C   0  0
    1.4261   -3.3019    0.0000 C   0  0
    1.4261   -4.1269    0.0000 C   0  0
    2.1405   -4.5393    0.0000 C   0  0
    2.8550   -4.1268    0.0000 C   0  0
    2.8550   -3.3018    0.0000 C   0  0
    3.5699   -4.5396    0.0000 C   0  0
    3.5703   -5.1996    0.0000 F   0  0
    4.1414   -4.2094    0.0000 F   0  0
    4.1416   -4.8693    0.0000 F   0  0
    0.7144   -0.4125    0.0000 C   0  0
    0.7144    0.4125    0.0000 C   0  0
    0.0000    0.8250    0.0000 C   0  0
   -0.7144    0.4125    0.0000 C   0  0
   -1.4290    0.8250    0.0000 N   0  0
   -2.1434    0.4125    0.0000 C   0  0
   -2.8591    0.8237    0.0000 N   0  0
   -2.1434   -0.4125    0.0000 N   0  0
   -1.4290   -0.8250    0.0000 C   0  0
   -0.7144   -0.4125    0.0000 C   0  0
    0.0000   -0.8250    0.0000 C   0  0
   -3.3350    0.5481    0.0000 H   0  0
   -2.8601    1.3737    0.0000 H   0  0
  1  2  1  0
  2  3  2  0
  3  4  1  0
  3 19  1  0
  4  5  2  0
  4  6  1  0
  6  7  1  0
  6  9  1  0
  7  8  2  0
  8  2  1  0
  9 10  2  0
 10 11  1  0
 11 12  2  0
 12 13  1  0
 13 14  2  0
 13 15  1  0
 14  9  1  0
 15 16  1  0
 15 17  1  0
 15 18  1  0
 19 20  2  0
 20 21  1  0
 21 22  2  0
 22 23  1  0
 23 24  2  0
 24 25  1  0
 24 26  1  0
 25 30  1  0
 25 31  1  0
 26 27  2  0
 27 28  1  0
 28 22  1  0
 28 29  2  0
 29 19  1  0
M  END
> <CMPD_CHEMBLID>
CHEMBL504805

> <STANDARD_TYPE>
IC50

> <RELATION>
=

> <STANDARD_VALUE>
1400

> <STANDARD_UNITS>
nM

> <Molecular_Weight>
396.36521

$$$$

  SciTegic11272012012D

 25 28  0  0  0  0            999 V2000
    1.4276   -1.4867    0.0000 C   0  0
    1.4285   -0.8267    0.0000 S   0  0
    0.7144   -0.4125    0.0000 C   0  0
    0.7144    0.4125    0.0000 N   0  0
    0.0000    0.8250    0.0000 C   0  0
    0.0000    1.6504    0.0000 N   0  0
    0.6667    2.1244    0.0000 C   0  0
    0.4105    2.9086    0.0000 C   0  0
   -0.4145    2.9073    0.0000 C   0  0
   -0.6682    2.1223    0.0000 C   0  0
   -0.7144    0.4125    0.0000 C   0  0
   -1.4986    0.6674    0.0000 C   0  0
   -1.9836    0.0000    0.0000 N   0  0
   -1.4986   -0.6674    0.0000 N   0  0
   -1.7547   -1.4507    0.0000 C   0  0
   -2.5623   -1.6213    0.0000 C   0  0
   -3.0032   -1.1301    0.0000 Br  0  0
   -2.8189   -2.4059    0.0000 C   0  0
   -3.6259   -2.5776    0.0000 C   0  0
   -3.8807   -3.3623    0.0000 C   0  0
   -3.3285   -3.9752    0.0000 C   0  0
   -2.5216   -3.8036    0.0000 C   0  0
   -2.2668   -3.0189    0.0000 C   0  0
   -0.7144   -0.4125    0.0000 C   0  0
    0.0000   -0.8250    0.0000 N   0  0
  1  2  1  0
  2  3  1  0
  3  4  2  0
  4  5  1  0
  5  6  1  0
  5 11  2  0
  6  7  1  0
  7  8  1  0
  8  9  1  0
  9 10  1  0
 10  6  1  0
 11 12  1  0
 12 13  2  0
 13 14  1  0
 14 15  1  0
 14 24  1  0
 15 16  1  0
 16 17  1  0
 16 18  1  0
 18 19  2  0
 19 20  1  0
 20 21  2  0
 21 22  1  0
 22 23  2  0
 23 18  1  0
 24 11  1  0
 24 25  2  0
 25  3  1  0
M  END
> <CMPD_CHEMBLID>
CHEMBL507594

> <STANDARD_TYPE>
Ki

> <RELATION>
=

> <STANDARD_VALUE>
1400

> <STANDARD_UNITS>
nM

> <Molecular_Weight>
418.3539

$$$$

  SciTegic11272012012D

 27 30  0  0  0  0            999 V2000
    2.8524    1.4900    0.0000 F   0  0
    2.8546    0.8300    0.0000 C   0  0
    3.5706    0.4200    0.0000 C   0  0
    3.5734   -0.4050    0.0000 C   0  0
    2.8604   -0.8200    0.0000 C   0  0
    2.1444   -0.4100    0.0000 C   0  0
    1.4302   -0.8237    0.0000 N   0  0
    0.7144   -0.4125    0.0000 C   0  0
    0.7144    0.4125    0.0000 N   0  0
    0.0000    0.8250    0.0000 C   0  0
   -0.7144    0.4125    0.0000 N   0  0
   -0.7144   -0.4125    0.0000 C   0  0
    0.0000   -0.8250    0.0000 C   0  0
   -0.1713   -1.6316    0.0000 C   0  0
   -0.9918   -1.7178    0.0000 N   0  0
   -1.3273   -0.9641    0.0000 N   0  0
   -2.1336   -0.7943    0.0000 C   0  0
   -2.6852   -1.4084    0.0000 C   0  0
   -2.4803   -2.0358    0.0000 Cl  0  0
   -3.4930   -1.2383    0.0000 C   0  0
   -4.0452   -1.8513    0.0000 C   0  0
   -4.8521   -1.6797    0.0000 C   0  0
   -5.1069   -0.8950    0.0000 C   0  0
   -4.5548   -0.2820    0.0000 C   0  0
   -3.7478   -0.4536    0.0000 C   0  0
    2.1416    0.4150    0.0000 C   0  0
    1.4311   -1.3737    0.0000 H   0  0
  1  2  1  0
  2  3  2  0
  3  4  1  0
  4  5  2  0
  5  6  1  0
  6  7  1  0
  6 26  2  0
  7  8  1  0
  7 27  1  0
  8  9  2  0
  9 10  1  0
 10 11  2  0
 11 12  1  0
 12 13  2  0
 13  8  1  0
 13 14  1  0
 14 15  2  0
 15 16  1  0
 16 12  1  0
 16 17  1  0
 17 18  1  0
 18 19  1  0
 18 20  1  0
 20 21  2  0
 21 22  1  0
 22 23  2  0
 23 24  1  0
 24 25  2  0
 25 20  1  0
 26  2  1  0
M  END
> <CMPD_CHEMBLID>
CHEMBL2397800

> <STANDARD_TYPE>
Ki

> <RELATION>
=

> <STANDARD_VALUE>
1440

> <STANDARD_UNITS>
nM

> <Molecular_Weight>
367.8073

$$$$

  SciTegic11272012012D

 27 29  0  0  0  0            999 V2000
    4.8613   -0.4880    0.0000 C   0  0
    4.2901   -0.8188    0.0000 C   0  0
    3.5744   -0.4075    0.0000 O   0  0
    2.8601   -0.8213    0.0000 C   0  0
    2.1444   -0.4100    0.0000 C   0  0
    1.4302   -0.8237    0.0000 N   0  0
    0.7144   -0.4125    0.0000 C   0  0
    0.7144    0.4125    0.0000 N   0  0
    0.0000    0.8250    0.0000 C   0  0
   -0.0017    1.6504    0.0000 S   0  0
   -0.5738    1.9796    0.0000 C   0  0
   -0.7144    0.4125    0.0000 N   0  0
   -0.7144   -0.4125    0.0000 C   0  0
    0.0000   -0.8250    0.0000 C   0  0
   -0.1713   -1.6316    0.0000 C   0  0
   -0.9918   -1.7178    0.0000 N   0  0
   -1.3273   -0.9641    0.0000 N   0  0
   -2.1337   -0.7943    0.0000 C   0  0
   -2.6852   -1.4084    0.0000 C   0  0
   -2.4803   -2.0358    0.0000 Cl  0  0
   -3.4930   -1.2383    0.0000 C   0  0
   -4.0452   -1.8513    0.0000 C   0  0
   -4.8521   -1.6797    0.0000 C   0  0
   -5.1069   -0.8950    0.0000 C   0  0
   -4.5548   -0.2820    0.0000 C   0  0
   -3.7478   -0.4536    0.0000 C   0  0
    1.4311   -1.3737    0.0000 H   0  0
  1  2  1  0
  2  3  1  0
  3  4  1  0
  4  5  1  0
  5  6  1  0
  6  7  1  0
  6 27  1  0
  7  8  2  0
  8  9  1  0
  9 10  1  0
  9 12  2  0
 10 11  1  0
 12 13  1  0
 13 14  2  0
 14  7  1  0
 14 15  1  0
 15 16  2  0
 16 17  1  0
 17 13  1  0
 17 18  1  0
 18 19  1  0
 19 20  1  0
 19 21  1  0
 21 22  2  0
 22 23  1  0
 23 24  2  0
 24 25  1  0
 25 26  2  0
 26 21  1  0
M  END
> <CMPD_CHEMBLID>
CHEMBL291273

> <STANDARD_TYPE>
Ki

> <RELATION>
=

> <STANDARD_VALUE>
1500

> <STANDARD_UNITS>
nM

> <Molecular_Weight>
391.91818

$$$$

  SciTegic11272012012D

 24 26  0  0  0  0            999 V2000
    1.2861   -0.7425    0.0000 C   0  0
    0.7145   -0.4125    0.0000 C   0  0
    0.7145    0.4125    0.0000 C   0  0
    0.0000    0.8250    0.0000 C   0  0
   -0.7145    0.4125    0.0000 C   0  0
   -1.4302    0.8237    0.0000 N   0  0
   -0.7145   -0.4125    0.0000 C   0  0
    0.0000   -0.8250    0.0000 C   0  0
   -0.0017   -1.6505    0.0000 N   0  0
   -0.7172   -2.0622    0.0000 C   0  0
   -0.7201   -2.8872    0.0000 N   0  0
   -1.4360   -3.2972    0.0000 C   0  0
   -2.1490   -2.8822    0.0000 C   0  0
   -2.1461   -2.0572    0.0000 C   0  0
   -1.4302   -1.6472    0.0000 N   0  0
   -2.8595   -1.6421    0.0000 C   0  0
   -3.5761   -2.0510    0.0000 C   0  0
   -4.2885   -1.6348    0.0000 C   0  0
   -4.2844   -0.8099    0.0000 C   0  0
   -3.5678   -0.4010    0.0000 N   0  0
   -2.8555   -0.8170    0.0000 C   0  0
    0.4742   -1.9263    0.0000 H   0  0
   -1.9061    0.5481    0.0000 H   0  0
   -1.4312    1.3737    0.0000 H   0  0
  1  2  1  0
  2  3  2  0
  3  4  1  0
  4  5  2  0
  5  6  1  0
  5  7  1  0
  6 23  1  0
  6 24  1  0
  7  8  2  0
  8  2  1  0
  8  9  1  0
  9 10  1  0
  9 22  1  0
 10 11  2  0
 11 12  1  0
 12 13  2  0
 13 14  1  0
 14 15  2  0
 14 16  1  0
 15 10  1  0
 16 17  2  0
 17 18  1  0
 18 19  2  0
 19 20  1  0
 20 21  2  0
 21 16  1  0
M  END
> <CMPD_CHEMBLID>
CHEMBL278103

> <STANDARD_TYPE>
IC50

> <RELATION>
=

> <STANDARD_VALUE>
1500

> <STANDARD_UNITS>
nM

> <Molecular_Weight>
277.3238

$$$$

  SciTegic11272012012D

 21 23  0  0  0  0            999 V2000
    1.2861   -0.7425    0.0000 Cl  0  0
    0.7144   -0.4125    0.0000 C   0  0
    0.7144    0.4125    0.0000 C   0  0
    0.0000    0.8250    0.0000 C   0  0
   -0.7144    0.4125    0.0000 C   0  0
   -0.7144   -0.4125    0.0000 C   0  0
   -1.4285   -0.8267    0.0000 N   0  0
   -1.4273   -1.6521    0.0000 C   0  0
   -2.1403   -2.0672    0.0000 N   0  0
   -2.1375   -2.8922    0.0000 C   0  0
   -1.4216   -3.3022    0.0000 C   0  0
   -0.7086   -2.8872    0.0000 C   0  0
   -0.7114   -2.0622    0.0000 N   0  0
    0.0077   -3.2975    0.0000 C   0  0
    0.0119   -4.1225    0.0000 C   0  0
    0.7285   -4.5314    0.0000 C   0  0
    1.4408   -4.1153    0.0000 C   0  0
    1.4367   -3.2903    0.0000 N   0  0
    0.7201   -2.8814    0.0000 C   0  0
    0.0000   -0.8250    0.0000 C   0  0
   -1.9053   -0.5525    0.0000 H   0  0
  1  2  1  0
  2  3  2  0
  3  4  1  0
  4  5  2  0
  5  6  1  0
  6  7  1  0
  6 20  2  0
  7  8  1  0
  7 21  1  0
  8  9  2  0
  9 10  1  0
 10 11  2  0
 11 12  1  0
 12 13  2  0
 12 14  1  0
 13  8  1  0
 14 15  2  0
 15 16  1  0
 16 17  2  0
 17 18  1  0
 18 19  2  0
 19 14  1  0
 20  2  1  0
M  END
> <CMPD_CHEMBLID>
CHEMBL300817

> <STANDARD_TYPE>
IC50

> <RELATION>
=

> <STANDARD_VALUE>
1500

> <STANDARD_UNITS>
nM

> <Molecular_Weight>
282.72764

$$$$

  SciTegic11272012012D

 23 26  0  0  0  0            999 V2000
   -0.2704   -2.1221    0.0000 C   0  0
    0.1713   -1.6316    0.0000 N   0  0
    0.9918   -1.7179    0.0000 N   0  0
    1.3273   -0.9642    0.0000 C   0  0
    2.1348   -0.7925    0.0000 C   0  0
    2.7291   -1.3607    0.0000 C   0  0
    3.5209   -1.1288    0.0000 C   0  0
    3.7159   -0.3272    0.0000 C   0  0
    4.4419    0.0639    0.0000 C   0  0
    4.2940    0.8756    0.0000 C   0  0
    3.4765    0.9858    0.0000 N   0  0
    3.1193    0.2426    0.0000 C   0  0
    2.3275    0.0107    0.0000 C   0  0
    0.7145   -0.4125    0.0000 C   0  0
    0.7145    0.4125    0.0000 C   0  0
    1.4285    0.8267    0.0000 N   0  0
    0.0000    0.8250    0.0000 N   0  0
   -0.7145    0.4125    0.0000 C   0  0
   -0.7145   -0.4125    0.0000 N   0  0
    0.0000   -0.8250    0.0000 C   0  0
    1.4277    1.3767    0.0000 H   0  0
    1.9053    0.5525    0.0000 H   0  0
    3.2155    1.4699    0.0000 H   0  0
  1  2  1  0
  2  3  1  0
  3  4  2  0
  4  5  1  0
  4 14  1  0
  5  6  2  0
  6  7  1  0
  7  8  2  0
  8  9  1  0
  9 10  2  0
 10 11  1  0
 11 12  1  0
 11 23  1  0
 12  8  1  0
 12 13  2  0
 13  5  1  0
 14 15  2  0
 15 16  1  0
 15 17  1  0
 16 21  1  0
 16 22  1  0
 17 18  2  0
 18 19  1  0
 19 20  2  0
 20  2  1  0
 20 14  1  0
M  END
> <CMPD_CHEMBLID>
CHEMBL1240566

> <STANDARD_TYPE>
IC50

> <RELATION>
=

> <STANDARD_VALUE>
1500

> <STANDARD_UNITS>
nM

> <Molecular_Weight>
264.28528

$$$$

  SciTegic11272012012D

 26 29  0  0  0  0            999 V2000
    2.1337   -0.7943    0.0000 N   0  0
    1.3273   -0.9641    0.0000 C   0  0
    0.7144   -0.4125    0.0000 C   0  0
    0.7144    0.4125    0.0000 C   0  0
    1.2861    0.7425    0.0000 O   0  0
    0.0000    0.8250    0.0000 N   0  0
   -0.7144    0.4125    0.0000 C   0  0
   -0.7144   -0.4125    0.0000 C   0  0
    0.0000   -0.8250    0.0000 C   0  0
    0.1713   -1.6316    0.0000 N   0  0
    0.9918   -1.7178    0.0000 N   0  0
    1.4045   -2.4326    0.0000 C   0  0
    1.0476   -3.1734    0.0000 C   0  0
    1.5127   -3.8548    0.0000 C   0  0
    2.3354   -3.7928    0.0000 C   0  0
    2.6930   -3.0493    0.0000 C   0  0
    2.2279   -2.3679    0.0000 C   0  0
   -1.4293    0.8252    0.0000 C   0  0
   -1.4307    1.6502    0.0000 C   0  0
   -2.1458    2.0616    0.0000 C   0  0
   -2.8596    1.6480    0.0000 C   0  0
   -2.8583    0.8230    0.0000 C   0  0
   -2.1432    0.4116    0.0000 C   0  0
    0.0000    1.3750    0.0000 H   0  0
    2.5012   -1.2035    0.0000 H   0  0
    2.3044   -0.2715    0.0000 H   0  0
  1  2  1  0
  1 25  1  0
  1 26  1  0
  2  3  2  0
  3  4  1  0
  4  5  2  0
  4  6  1  0
  6  7  1  0
  6 24  1  0
  7  8  2  0
  7 18  1  0
  8  9  1  0
  9  3  1  0
  9 10  2  0
 10 11  1  0
 11  2  1  0
 11 12  1  0
 12 13  2  0
 13 14  1  0
 14 15  2  0
 15 16  1  0
 16 17  2  0
 17 12  1  0
 18 19  2  0
 19 20  1  0
 20 21  2  0
 21 22  1  0
 22 23  2  0
 23 18  1  0
M  END
> <CMPD_CHEMBLID>
CHEMBL1813790

> <STANDARD_TYPE>
IC50

> <RELATION>
=

> <STANDARD_VALUE>
1500

> <STANDARD_UNITS>
nM

> <Molecular_Weight>
302.32996

$$$$

  SciTegic11272012012D

 24 26  0  0  0  0            999 V2000
   -2.7166   -1.7050    0.0000 C   0  0
   -2.5614   -2.3465    0.0000 O   0  0
   -1.7697   -2.5801    0.0000 C   0  0
   -1.5746   -3.3817    0.0000 C   0  0
   -0.7828   -3.6136    0.0000 C   0  0
   -0.6267   -4.2549    0.0000 Br  0  0
   -0.1861   -3.0438    0.0000 C   0  0
   -0.3810   -2.2450    0.0000 C   0  0
   -1.1730   -2.0103    0.0000 C   0  0
    0.1713   -1.6316    0.0000 C   0  0
    0.9918   -1.7179    0.0000 N   0  0
    1.3273   -0.9642    0.0000 N   0  0
    2.1337   -0.7943    0.0000 C   0  0
    2.5748   -1.2854    0.0000 C   0  0
    2.3387   -0.1669    0.0000 C   0  0
    0.7145   -0.4125    0.0000 C   0  0
    0.7145    0.4125    0.0000 N   0  0
    0.0000    0.8250    0.0000 C   0  0
   -0.7145    0.4125    0.0000 N   0  0
   -0.7145   -0.4125    0.0000 C   0  0
   -1.4302   -0.8238    0.0000 N   0  0
    0.0000   -0.8250    0.0000 C   0  0
   -1.9062   -0.5481    0.0000 H   0  0
   -1.4312   -1.3738    0.0000 H   0  0
  1  2  1  0
  2  3  1  0
  3  4  2  0
  4  5  1  0
  5  6  1  0
  5  7  2  0
  7  8  1  0
  8  9  2  0
  8 10  1  0
  9  3  1  0
 10 11  2  0
 11 12  1  0
 12 13  1  0
 12 16  1  0
 13 14  1  0
 13 15  1  0
 16 17  2  0
 17 18  1  0
 18 19  2  0
 19 20  1  0
 20 21  1  0
 20 22  2  0
 21 23  1  0
 21 24  1  0
 22 10  1  0
 22 16  1  0
M  END
> <CMPD_CHEMBLID>
CHEMBL1242200

> <STANDARD_TYPE>
IC50

> <RELATION>
=

> <STANDARD_VALUE>
1500

> <STANDARD_UNITS>
nM

> <Molecular_Weight>
362.22444

$$$$

  SciTegic11272012012D

 29 31  0  0  0  0            999 V2000
    1.4302   -0.8237    0.0000 O   0  0
    0.7144   -0.4125    0.0000 C   0  0
    0.7144    0.4125    0.0000 C   0  0
    0.0000    0.8250    0.0000 C   0  0
   -0.7144    0.4125    0.0000 C   0  0
   -1.4302    0.8237    0.0000 N   0  0
   -2.1444    0.4100    0.0000 S   0  0
   -2.1433   -0.2500    0.0000 O   0  0
   -1.5723    0.0809    0.0000 O   0  0
   -2.8602    0.8213    0.0000 C   0  0
   -3.5738    0.4073    0.0000 C   0  0
   -4.2891    0.8183    0.0000 C   0  0
   -4.2908    1.6433    0.0000 C   0  0
   -3.5772    2.0573    0.0000 C   0  0
   -2.8619    1.6463    0.0000 C   0  0
   -5.0057    2.0560    0.0000 N   0  3
   -5.0061    2.7160    0.0000 O   0  0
   -5.5772    1.7258    0.0000 O   0  5
   -0.7144   -0.4125    0.0000 C   0  0
    0.0000   -0.8250    0.0000 C   0  0
   -0.0017   -1.6504    0.0000 S   0  0
   -0.7171   -2.0622    0.0000 C   0  0
   -1.4592   -1.7180    0.0000 N   0  0
   -2.0134   -2.3292    0.0000 C   0  0
   -1.6034   -3.0451    0.0000 N   0  0
   -0.7958   -2.8763    0.0000 N   0  0
   -0.3862   -3.2433    0.0000 H   0  0
   -1.4312    1.3737    0.0000 H   0  0
    1.9061   -0.5481    0.0000 H   0  0
  1  2  1  0
  1 29  1  0
  2  3  2  0
  3  4  1  0
  4  5  2  0
  5  6  1  0
  5 19  1  0
  6  7  1  0
  6 28  1  0
  7  8  2  0
  7  9  2  0
  7 10  1  0
 10 11  2  0
 11 12  1  0
 12 13  2  0
 13 14  1  0
 13 16  1  0
 14 15  2  0
 15 10  1  0
 16 17  2  0
 16 18  1  0
 19 20  2  0
 20  2  1  0
 20 21  1  0
 21 22  1  0
 22 23  2  0
 23 24  1  0
 24 25  2  0
 25 26  1  0
 26 22  1  0
 26 27  1  0
M  CHG  2  16   1  18  -1
M  END
> <CMPD_CHEMBLID>
CHEMBL2436727

> <STANDARD_TYPE>
IC50

> <RELATION>
=

> <STANDARD_VALUE>
1500

> <STANDARD_UNITS>
nM

> <Molecular_Weight>
393.39764

$$$$

  SciTegic11272012012D

 27 31  0  0  0  0            999 V2000
    1.8786    0.9146    0.0000 N   0  0
    2.4288    0.2993    0.0000 C   0  0
    3.2361    0.4696    0.0000 N   0  0
    3.7872   -0.1443    0.0000 C   0  0
    3.5311   -0.9285    0.0000 N   0  0
    2.7239   -1.0989    0.0000 C   0  0
    2.1727   -0.4850    0.0000 C   0  0
    1.4293   -0.8252    0.0000 C   0  0
    1.5040   -1.6398    0.0000 N   0  0
    2.3107   -1.8125    0.0000 N   0  0
    2.6455   -2.5670    0.0000 C   0  0
    2.2842   -3.2979    0.0000 C   0  0
    2.8818   -3.8668    0.0000 C   0  0
    3.6074   -3.4743    0.0000 C   0  0
    3.4583   -2.6628    0.0000 C   0  0
    0.7145   -0.4125    0.0000 C   0  0
    0.7145    0.4125    0.0000 C   0  0
    0.0000    0.8250    0.0000 C   0  0
   -0.7145    0.4125    0.0000 C   0  0
   -1.4290    0.8250    0.0000 N   0  0
   -2.1434    0.4125    0.0000 C   0  0
   -2.1434   -0.4125    0.0000 C   0  0
   -1.4290   -0.8250    0.0000 C   0  0
   -0.7145   -0.4125    0.0000 C   0  0
    0.0000   -0.8250    0.0000 C   0  0
    2.0501    1.4372    0.0000 H   0  0
    1.3402    0.8020    0.0000 H   0  0
  1  2  1  0
  1 26  1  0
  1 27  1  0
  2  3  2  0
  3  4  1  0
  4  5  2  0
  5  6  1  0
  6  7  2  0
  7  2  1  0
  7  8  1  0
  8  9  2  0
  8 16  1  0
  9 10  1  0
 10  6  1  0
 10 11  1  0
 11 12  1  0
 12 13  1  0
 13 14  1  0
 14 15  1  0
 15 11  1  0
 16 17  2  0
 17 18  1  0
 18 19  2  0
 19 20  1  0
 20 21  2  0
 21 22  1  0
 22 23  2  0
 23 24  1  0
 24 19  1  0
 24 25  2  0
 25 16  1  0
M  END
> <CMPD_CHEMBLID>
CHEMBL1241681

> <STANDARD_TYPE>
IC50

> <RELATION>
=

> <STANDARD_VALUE>
1500

> <STANDARD_UNITS>
nM

> <Molecular_Weight>
330.38642

$$$$

  SciTegic11272012012D

 25 27  0  0  0  0            999 V2000
    0.0477   -4.5998    0.0000 C   0  0
   -0.5860   -4.4152    0.0000 O   0  0
   -0.7828   -3.6136    0.0000 C   0  0
   -0.1861   -3.0438    0.0000 C   0  0
   -0.3810   -2.2450    0.0000 C   0  0
   -1.1730   -2.0103    0.0000 C   0  0
   -1.7697   -2.5801    0.0000 C   0  0
   -1.5746   -3.3817    0.0000 C   0  0
   -2.1728   -3.9506    0.0000 O   0  0
    0.1713   -1.6316    0.0000 C   0  0
    0.9918   -1.7179    0.0000 N   0  0
    1.3273   -0.9642    0.0000 N   0  0
    2.1337   -0.7943    0.0000 C   0  0
    2.5748   -1.2854    0.0000 C   0  0
    2.3387   -0.1669    0.0000 C   0  0
    0.7145   -0.4125    0.0000 C   0  0
    0.7145    0.4125    0.0000 N   0  0
    0.0000    0.8250    0.0000 C   0  0
   -0.7145    0.4125    0.0000 N   0  0
   -0.7145   -0.4125    0.0000 C   0  0
   -1.4302   -0.8238    0.0000 N   0  0
    0.0000   -0.8250    0.0000 C   0  0
   -1.9062   -0.5481    0.0000 H   0  0
   -1.4312   -1.3738    0.0000 H   0  0
   -2.7004   -3.7952    0.0000 H   0  0
  1  2  1  0
  2  3  1  0
  3  4  2  0
  4  5  1  0
  5  6  2  0
  5 10  1  0
  6  7  1  0
  7  8  2  0
  8  3  1  0
  8  9  1  0
  9 25  1  0
 10 11  2  0
 11 12  1  0
 12 13  1  0
 12 16  1  0
 13 14  1  0
 13 15  1  0
 16 17  2  0
 17 18  1  0
 18 19  2  0
 19 20  1  0
 20 21  1  0
 20 22  2  0
 21 23  1  0
 21 24  1  0
 22 10  1  0
 22 16  1  0
M  END
> <CMPD_CHEMBLID>
CHEMBL1242112

> <STANDARD_TYPE>
IC50

> <RELATION>
=

> <STANDARD_VALUE>
1500

> <STANDARD_UNITS>
nM

> <Molecular_Weight>
299.32778

$$$$

  SciTegic11272012012D

 38 42  0  0  0  0            999 V2000
    5.0061   -2.7161    0.0000 C   0  0
    5.0057   -2.0561    0.0000 O   0  0
    4.2908   -1.6433    0.0000 C   0  0
    3.5772   -2.0573    0.0000 C   0  0
    2.8619   -1.6463    0.0000 C   0  0
    2.8602   -0.8213    0.0000 C   0  0
    3.5738   -0.4073    0.0000 C   0  0
    4.2891   -0.8183    0.0000 C   0  0
    5.0023   -0.4027    0.0000 O   0  0
    5.0000    0.2573    0.0000 C   0  0
    2.1444   -0.4100    0.0000 S   0  0
    2.1433    0.2500    0.0000 O   0  0
    1.5723   -0.0809    0.0000 O   0  0
    1.4302   -0.8237    0.0000 N   0  0
    0.7144   -0.4125    0.0000 C   0  0
    0.7144    0.4125    0.0000 C   0  0
    0.0000    0.8250    0.0000 C   0  0
    0.0017    1.6504    0.0000 S   0  0
    0.7171    2.0622    0.0000 C   0  0
    1.4302    1.6472    0.0000 N   0  0
    2.1461    2.0573    0.0000 C   0  0
    2.1490    2.8823    0.0000 N   0  0
    1.4359    3.2972    0.0000 C   0  0
    1.2674    4.1044    0.0000 N   0  0
    0.4473    4.1934    0.0000 C   0  0
    0.1091    3.4409    0.0000 N   0  0
    0.7201    2.8872    0.0000 C   0  0
   -0.7144    0.4125    0.0000 C   0  0
   -1.4285    0.8267    0.0000 O   0  0
   -0.7144   -0.4125    0.0000 C   0  0
   -1.4290   -0.8250    0.0000 C   0  0
   -1.4290   -1.6500    0.0000 C   0  0
   -0.7144   -2.0625    0.0000 C   0  0
    0.0000   -1.6500    0.0000 C   0  0
    0.0000   -0.8250    0.0000 C   0  0
   -1.4277    1.3767    0.0000 H   0  0
   -0.4293    3.3284    0.0000 H   0  0
    1.4312   -1.3737    0.0000 H   0  0
  1  2  1  0
  2  3  1  0
  3  4  2  0
  4  5  1  0
  5  6  2  0
  6  7  1  0
  6 11  1  0
  7  8  2  0
  8  3  1  0
  8  9  1  0
  9 10  1  0
 11 12  2  0
 11 13  2  0
 11 14  1  0
 14 15  1  0
 14 38  1  0
 15 16  2  0
 16 17  1  0
 17 18  1  0
 17 28  2  0
 18 19  1  0
 19 20  2  0
 20 21  1  0
 21 22  2  0
 22 23  1  0
 23 24  1  0
 24 25  2  0
 25 26  1  0
 26 27  1  0
 26 37  1  0
 27 19  1  0
 27 23  2  0
 28 29  1  0
 28 30  1  0
 29 36  1  0
 30 31  2  0
 31 32  1  0
 32 33  2  0
 33 34  1  0
 34 35  2  0
 35 15  1  0
 35 30  1  0
M  END
> <CMPD_CHEMBLID>
CHEMBL3113284

> <STANDARD_TYPE>
IC50

> <RELATION>
=

> <STANDARD_VALUE>
1530

> <STANDARD_UNITS>
nM

> <Molecular_Weight>
509.55746

$$$$

  SciTegic11272012012D

 33 36  0  0  0  0            999 V2000
    3.5687   -5.2035    0.0000 C   0  0
    3.5687   -4.5435    0.0000 C   0  0
    2.8542   -4.1310    0.0000 C   0  0
    2.8542   -3.3060    0.0000 C   0  0
    2.1402   -2.8918    0.0000 N   0  0
    2.1413   -2.0663    0.0000 C   0  0
    2.7135   -1.7373    0.0000 O   0  0
    1.4273   -1.6521    0.0000 C   0  0
    1.4285   -0.8267    0.0000 O   0  0
    0.7144   -0.4125    0.0000 C   0  0
    0.7144    0.4125    0.0000 C   0  0
    0.0000    0.8250    0.0000 C   0  0
    0.0017    1.6504    0.0000 O   0  0
   -0.7144    0.4125    0.0000 C   0  0
   -1.4290    0.8250    0.0000 C   0  0
   -1.4290    1.4850    0.0000 O   0  0
   -2.1434    0.4125    0.0000 C   0  0
   -2.1434   -0.4125    0.0000 C   0  0
   -1.4290   -0.8250    0.0000 O   0  0
   -0.7144   -0.4125    0.0000 C   0  0
    0.0000   -0.8250    0.0000 C   0  0
   -2.8582   -0.8252    0.0000 C   0  0
   -3.5734   -0.4139    0.0000 C   0  0
   -4.2872   -0.8275    0.0000 C   0  0
   -4.2859   -1.6525    0.0000 C   0  0
   -3.5708   -2.0639    0.0000 C   0  0
   -2.8570   -1.6503    0.0000 C   0  0
    3.5687   -2.8935    0.0000 N   0  0
    4.2832   -3.3060    0.0000 C   0  0
    4.2831   -4.1310    0.0000 C   0  0
    4.8547   -4.4610    0.0000 Br  0  0
    0.4784    1.9248    0.0000 H   0  0
    1.6634   -3.1660    0.0000 H   0  0
  1  2  1  0
  2  3  2  0
  3  4  1  0
  4  5  1  0
  4 28  2  0
  5  6  1  0
  5 33  1  0
  6  7  2  0
  6  8  1  0
  8  9  1  0
  9 10  1  0
 10 11  2  0
 11 12  1  0
 12 13  1  0
 12 14  2  0
 13 32  1  0
 14 15  1  0
 15 16  2  0
 15 17  1  0
 17 18  2  0
 18 19  1  0
 18 22  1  0
 19 20  1  0
 20 14  1  0
 20 21  2  0
 21 10  1  0
 22 23  2  0
 23 24  1  0
 24 25  2  0
 25 26  1  0
 26 27  2  0
 27 22  1  0
 28 29  1  0
 29 30  2  0
 30  2  1  0
 30 31  1  0
M  END
> <CMPD_CHEMBLID>
CHEMBL2408496

> <STANDARD_TYPE>
IC50

> <RELATION>
=

> <STANDARD_VALUE>
1530

> <STANDARD_UNITS>
nM

> <Molecular_Weight>
481.29548

$$$$

  SciTegic11272012012D

 33 36  0  0  0  0            999 V2000
    0.6851   -3.1984    0.0000 N   0  0
   -0.1229   -3.0297    0.0000 C   0  0
   -0.3789   -2.2450    0.0000 C   0  0
    0.1713   -1.6316    0.0000 C   0  0
    0.9918   -1.7178    0.0000 C   0  0
    1.3273   -0.9641    0.0000 N   0  0
    0.7144   -0.4125    0.0000 C   0  0
    0.7144    0.4125    0.0000 C   0  0
    0.0000    0.8250    0.0000 C   0  0
   -0.7144    0.4125    0.0000 C   0  0
   -0.7144   -0.4125    0.0000 C   0  0
    0.0000   -0.8250    0.0000 C   0  0
   -0.6741   -3.6442    0.0000 C   0  0
   -1.3198   -3.5080    0.0000 O   0  0
   -0.4180   -4.4289    0.0000 N   0  0
   -0.9692   -5.0434    0.0000 C   0  0
   -0.7144   -5.8281    0.0000 C   0  0
   -1.2665   -6.4411    0.0000 N   0  0
   -2.0735   -6.2694    0.0000 C   0  0
   -2.3283   -5.4848    0.0000 C   0  0
   -3.1353   -5.3114    0.0000 C   0  0
   -3.3892   -4.5259    0.0000 C   0  0
   -4.1962   -4.3525    0.0000 C   0  0
   -4.4511   -3.5679    0.0000 C   0  0
   -5.2580   -3.3961    0.0000 C   0  0
   -5.8101   -4.0092    0.0000 N   0  0
   -5.5554   -4.7938    0.0000 C   0  0
   -4.7484   -4.9655    0.0000 C   0  0
   -1.7762   -4.8718    0.0000 C   0  0
    0.1201   -4.5425    0.0000 H   0  0
    1.8653   -0.8497    0.0000 H   0  0
    1.0519   -2.7886    0.0000 H   0  0
    0.8568   -3.7209    0.0000 H   0  0
  1  2  1  0
  1 32  1  0
  1 33  1  0
  2  3  1  0
  2 13  1  0
  3  4  1  0
  4  5  2  0
  5  6  1  0
  6  7  1  0
  6 31  1  0
  7  8  2  0
  8  9  1  0
  9 10  2  0
 10 11  1  0
 11 12  2  0
 12  4  1  0
 12  7  1  0
 13 14  2  0
 13 15  1  0
 15 16  1  0
 15 30  1  0
 16 17  2  0
 17 18  1  0
 18 19  2  0
 19 20  1  0
 20 21  1  0
 20 29  2  0
 21 22  2  0
 22 23  1  0
 23 24  2  0
 24 25  1  0
 25 26  2  0
 26 27  1  0
 27 28  2  0
 28 23  1  0
 29 16  1  0
M  END
> <CMPD_CHEMBLID>
CHEMBL1983945

> <STANDARD_TYPE>
Ki

> <RELATION>
>

> <STANDARD_VALUE>
1584.89

> <STANDARD_UNITS>
nM

> <Molecular_Weight>
383.44574

$$$$

  SciTegic11272012012D

 41 46  0  0  0  0            999 V2000
    6.4495   -1.6525    0.0000 O   0  0
    6.0180   -0.9488    0.0000 C   0  0
    5.1928   -0.9701    0.0000 C   0  0
    4.7606   -0.2674    0.0000 C   0  0
    3.9360   -0.2903    0.0000 C   0  0
    3.5452   -1.0138    0.0000 C   0  0
    3.9757   -1.7187    0.0000 C   0  0
    4.8003   -1.6958    0.0000 C   0  0
    2.7242   -1.0988    0.0000 C   0  0
    2.1731   -0.4848    0.0000 S   0  0
    1.4293   -0.8252    0.0000 C   0  0
    1.5039   -1.6398    0.0000 N   0  0
    2.3106   -1.8126    0.0000 C   0  0
    2.6430   -2.5666    0.0000 C   0  0
    3.2991   -2.6378    0.0000 O   0  0
    2.1557   -3.2330    0.0000 O   0  0
    0.7145   -0.4125    0.0000 N   0  0
    0.7145    0.4125    0.0000 C   0  0
    0.0000    0.8250    0.0000 C   0  0
   -0.7145    0.4125    0.0000 C   0  0
   -1.4290    0.8250    0.0000 C   0  0
   -2.1434    0.4125    0.0000 C   0  0
   -2.1434   -0.4125    0.0000 C   0  0
   -1.4290   -0.8250    0.0000 C   0  0
   -1.4306   -1.6504    0.0000 C   0  0
   -0.8597   -1.9814    0.0000 O   0  0
   -2.1461   -2.0622    0.0000 N   0  0
   -2.1478   -2.8876    0.0000 C   0  0
   -2.8152   -3.3606    0.0000 N   0  0
   -2.5603   -4.1447    0.0000 C   0  0
   -2.9728   -4.8591    0.0000 C   0  0
   -2.5603   -5.5736    0.0000 C   0  0
   -1.7353   -5.5736    0.0000 C   0  0
   -1.3228   -4.8591    0.0000 C   0  0
   -1.7353   -4.1447    0.0000 C   0  0
   -1.4803   -3.3606    0.0000 S   0  0
   -0.7145   -0.4125    0.0000 C   0  0
    0.0000   -0.8250    0.0000 C   0  0
   -2.6219   -1.7863    0.0000 H   0  0
    2.3776   -3.7362    0.0000 H   0  0
    6.9993   -1.6384    0.0000 H   0  0
  1  2  1  0
  1 41  1  0
  2  3  1  0
  3  4  2  0
  4  5  1  0
  5  6  2  0
  6  7  1  0
  6  9  1  0
  7  8  2  0
  8  3  1  0
  9 10  1  0
 10 11  1  0
 11 12  2  0
 11 17  1  0
 12 13  1  0
 13  9  2  0
 13 14  1  0
 14 15  2  0
 14 16  1  0
 16 40  1  0
 17 18  1  0
 18 19  1  0
 19 20  1  0
 20 21  2  0
 21 22  1  0
 22 23  2  0
 23 24  1  0
 24 25  1  0
 24 37  2  0
 25 26  2  0
 25 27  1  0
 27 28  1  0
 27 39  1  0
 28 29  2  0
 29 30  1  0
 30 31  2  0
 31 32  1  0
 32 33  2  0
 33 34  1  0
 34 35  2  0
 35 30  1  0
 35 36  1  0
 36 28  1  0
 37 20  1  0
 37 38  1  0
 38 17  1  0
M  END
> <CMPD_CHEMBLID>
CHEMBL1983980

> <STANDARD_TYPE>
Ki

> <RELATION>
=

> <STANDARD_VALUE>
1584.89

> <STANDARD_UNITS>
nM

> <Molecular_Weight>
542.62868

$$$$

  SciTegic11272012012D

 36 39  0  0  0  0            999 V2000
    3.4313   -0.4904    0.0000 C   0  0
    2.8602   -0.8213    0.0000 C   0  0
    2.8614   -1.4813    0.0000 C   0  0
    2.1445   -0.4100    0.0000 C   0  0
    1.4302   -0.8237    0.0000 O   0  0
    0.7145   -0.4125    0.0000 C   0  0
    0.7145    0.4125    0.0000 N   0  0
    0.0000    0.8250    0.0000 C   0  0
   -0.7145    0.4125    0.0000 C   0  0
   -0.7145   -0.4125    0.0000 N   0  0
   -1.3273   -0.9642    0.0000 C   0  0
   -2.1347   -0.7924    0.0000 C   0  0
   -2.4465   -0.0316    0.0000 C   0  0
   -3.2641    0.0788    0.0000 C   0  0
   -3.7684   -0.5742    0.0000 N   0  0
   -3.4552   -1.3373    0.0000 C   0  0
   -3.9585   -1.9917    0.0000 N   0  0
   -3.6440   -2.7549    0.0000 C   0  0
   -4.1473   -3.4092    0.0000 C   0  0
   -4.8015   -3.3220    0.0000 C   0  0
   -4.3990   -2.7990    0.0000 C   0  0
   -3.8328   -4.1724    0.0000 C   0  0
   -4.3360   -4.8266    0.0000 O   0  0
   -2.6376   -1.4477    0.0000 N   0  0
   -0.9918   -1.7178    0.0000 C   0  0
   -0.1713   -1.6316    0.0000 N   0  0
    0.0000   -0.8250    0.0000 C   0  0
   -1.4045   -2.4327    0.0000 C   0  0
   -2.2244   -2.4941    0.0000 C   0  0
   -2.5821   -3.2376    0.0000 C   0  0
   -2.1169   -3.9190    0.0000 C   0  0
   -2.4030   -4.5137    0.0000 F   0  0
   -1.2943   -3.8569    0.0000 C   0  0
   -0.9367   -3.1134    0.0000 C   0  0
   -4.1265   -5.3352    0.0000 H   0  0
   -4.5037   -1.9190    0.0000 H   0  0
  1  2  1  0
  2  3  1  0
  2  4  1  0
  4  5  1  0
  5  6  1  0
  6  7  2  0
  7  8  1  0
  8  9  2  0
  9 10  1  0
 10 11  1  0
 11 12  1  0
 11 25  2  0
 12 13  2  0
 13 14  1  0
 14 15  2  0
 15 16  1  0
 16 17  1  0
 16 24  2  0
 17 18  1  0
 17 36  1  0
 18 19  1  0
 19 20  1  0
 19 21  1  0
 19 22  1  0
 22 23  1  0
 23 35  1  0
 24 12  1  0
 25 26  1  0
 25 28  1  0
 26 27  2  0
 27  6  1  0
 27 10  1  0
 28 29  2  0
 29 30  1  0
 30 31  2  0
 31 32  1  0
 31 33  1  0
 33 34  2  0
 34 28  1  0
M  END
> <CMPD_CHEMBLID>
CHEMBL1984842

> <STANDARD_TYPE>
Ki

> <RELATION>
>

> <STANDARD_VALUE>
1584.89

> <STANDARD_UNITS>
nM

> <Molecular_Weight>
464.53516

$$$$

  SciTegic11272012012D

 18 20  0  0  0  0            999 V2000
    1.2861   -0.7425    0.0000 O   0  0
    0.7145   -0.4125    0.0000 C   0  0
    0.7145    0.4125    0.0000 N   0  0
    0.0000    0.8250    0.0000 C   0  0
   -0.7145    0.4125    0.0000 C   0  0
   -0.7145   -0.4125    0.0000 C   0  0
   -1.3273   -0.9642    0.0000 N   0  0
   -0.9918   -1.7178    0.0000 C   0  0
   -0.1713   -1.6316    0.0000 C   0  0
    0.0000   -0.8250    0.0000 C   0  0
   -1.4045   -2.4327    0.0000 C   0  0
   -2.2244   -2.4941    0.0000 C   0  0
   -2.5821   -3.2376    0.0000 C   0  0
   -2.1169   -3.9190    0.0000 N   0  0
   -1.2943   -3.8569    0.0000 C   0  0
   -0.9367   -3.1134    0.0000 C   0  0
   -1.8653   -0.8498    0.0000 H   0  0
    1.1908    0.6875    0.0000 H   0  0
  1  2  2  0
  2  3  1  0
  3  4  1  0
  3 18  1  0
  4  5  1  0
  5  6  1  0
  6  7  1  0
  7  8  1  0
  7 17  1  0
  8  9  2  0
  8 11  1  0
  9 10  1  0
 10  2  1  0
 10  6  2  0
 11 12  2  0
 12 13  1  0
 13 14  2  0
 14 15  1  0
 15 16  2  0
 16 11  1  0
M  END
> <CMPD_CHEMBLID>
CHEMBL225519

> <STANDARD_TYPE>
Ki

> <RELATION>
>

> <STANDARD_VALUE>
1584.89

> <STANDARD_UNITS>
nM

> <Molecular_Weight>
213.23524

$$$$

  SciTegic11272012012D

 42 46  0  0  0  0            999 V2000
    4.1754   -3.0157    0.0000 C   0  0
    3.7638   -3.5316    0.0000 O   0  0
    2.9476   -3.4090    0.0000 C   0  0
    2.6474   -2.6406    0.0000 C   0  0
    1.8318   -2.5163    0.0000 C   0  0
    1.3164   -3.1605    0.0000 C   0  0
    1.6166   -3.9289    0.0000 C   0  0
    1.0995   -4.5724    0.0000 O   0  0
    0.4473   -4.4721    0.0000 C   0  0
    2.4322   -4.0532    0.0000 C   0  0
    2.7341   -4.8214    0.0000 O   0  0
    3.3867   -4.9199    0.0000 C   0  0
    1.5302   -1.7479    0.0000 C   0  0
    2.0446   -1.1029    0.0000 C   0  0
    1.7432   -0.3349    0.0000 C   0  0
    0.9268   -0.2115    0.0000 C   0  0
    0.7433    0.5928    0.0000 N   0  0
    0.0000    0.9507    0.0000 C   0  0
    0.0613    1.7740    0.0000 C   0  0
   -0.6203    2.2388    0.0000 C   0  0
   -1.3636    1.8808    0.0000 C   0  0
   -1.4253    1.0581    0.0000 C   0  0
   -0.7433    0.5927    0.0000 C   0  0
   -0.9268   -0.2116    0.0000 C   0  0
   -1.5703   -0.3584    0.0000 O   0  0
   -0.4125   -0.8566    0.0000 N   0  0
    0.4125   -0.8566    0.0000 C   0  0
    0.7144   -1.6250    0.0000 C   0  0
   -0.5586    3.0618    0.0000 C   0  0
   -1.2410    3.5256    0.0000 C   0  0
   -1.1807    4.3483    0.0000 C   0  0
   -0.4380    4.7075    0.0000 C   0  0
    0.2444    4.2438    0.0000 C   0  0
    0.1841    3.4210    0.0000 C   0  0
    0.8678    2.9586    0.0000 N   0  0
    1.6104    3.3190    0.0000 S   0  0
    2.1571    2.9492    0.0000 O   0  0
    1.6575    3.9773    0.0000 O   0  0
    2.2040    3.6075    0.0000 C   0  0
    0.8286    2.4100    0.0000 H   0  0
   -0.6511   -1.3521    0.0000 H   0  0
    1.1733    0.9357    0.0000 H   0  0
  1  2  1  0
  2  3  1  0
  3  4  2  0
  4  5  1  0
  5  6  2  0
  5 13  1  0
  6  7  1  0
  7  8  1  0
  7 10  2  0
  8  9  1  0
 10  3  1  0
 10 11  1  0
 11 12  1  0
 13 14  2  0
 14 15  1  0
 15 16  2  0
 16 17  1  0
 17 18  1  0
 17 42  1  0
 18 19  2  0
 19 20  1  0
 20 21  2  0
 20 29  1  0
 21 22  1  0
 22 23  2  0
 23 18  1  0
 23 24  1  0
 24 25  2  0
 24 26  1  0
 26 27  1  0
 26 41  1  0
 27 16  1  0
 27 28  2  0
 28 13  1  0
 29 30  2  0
 30 31  1  0
 31 32  2  0
 32 33  1  0
 33 34  2  0
 34 29  1  0
 34 35  1  0
 35 36  1  0
 35 40  1  0
 36 37  2  0
 36 38  2  0
 36 39  1  0
M  END
> <CMPD_CHEMBLID>
CHEMBL1984038

> <STANDARD_TYPE>
Ki

> <RELATION>
>

> <STANDARD_VALUE>
1584.89

> <STANDARD_UNITS>
nM

> <Molecular_Weight>
545.60618

$$$$

  SciTegic11272012012D

 41 44  0  0  0  0            999 V2000
    3.5691   -2.2331    0.0000 C   0  0
    3.5689   -2.8931    0.0000 C   0  0
    2.8542   -3.3060    0.0000 N   0  0
    2.8530   -4.1314    0.0000 C   0  0
    3.5670   -4.5456    0.0000 C   0  0
    3.5658   -5.3711    0.0000 O   0  0
    2.1402   -2.8918    0.0000 C   0  0
    2.1413   -2.0663    0.0000 C   0  0
    1.4273   -1.6521    0.0000 C   0  0
    1.4285   -0.8267    0.0000 O   0  0
    0.7144   -0.4125    0.0000 C   0  0
    0.7144    0.4125    0.0000 C   0  0
    0.0000    0.8250    0.0000 C   0  0
   -0.7144    0.4125    0.0000 C   0  0
   -1.4290    0.8250    0.0000 C   0  0
   -1.4307    1.6504    0.0000 N   0  0
   -2.1461    2.0622    0.0000 C   0  0
   -2.2247    2.8763    0.0000 C   0  0
   -3.0323    3.0451    0.0000 C   0  0
   -3.3686    3.7974    0.0000 C   0  0
   -2.8848    4.4662    0.0000 C   0  0
   -2.2282    4.3983    0.0000 O   0  0
   -3.2216    5.2198    0.0000 N   0  0
   -2.7377    5.8886    0.0000 C   0  0
   -3.0732    6.6423    0.0000 C   0  0
   -2.5883    7.3097    0.0000 C   0  0
   -1.7679    7.2235    0.0000 C   0  0
   -1.4323    6.4699    0.0000 C   0  0
   -0.7759    6.4008    0.0000 F   0  0
   -1.9172    5.8024    0.0000 C   0  0
   -3.4423    2.3291    0.0000 N   0  0
   -2.8882    1.7180    0.0000 N   0  0
   -2.1434    0.4125    0.0000 N   0  0
   -2.1434   -0.4125    0.0000 C   0  0
   -1.4290   -0.8250    0.0000 N   0  0
   -0.7144   -0.4125    0.0000 C   0  0
    0.0000   -0.8250    0.0000 C   0  0
   -3.9892    2.2697    0.0000 H   0  0
   -3.7687    5.2764    0.0000 H   0  0
   -0.9548    1.9263    0.0000 H   0  0
    4.0416   -5.6471    0.0000 H   0  0
  1  2  1  0
  2  3  1  0
  3  4  1  0
  3  7  1  0
  4  5  1  0
  5  6  1  0
  6 41  1  0
  7  8  1  0
  8  9  1  0
  9 10  1  0
 10 11  1  0
 11 12  2  0
 12 13  1  0
 13 14  2  0
 14 15  1  0
 15 16  1  0
 15 33  2  0
 16 17  1  0
 16 40  1  0
 17 18  1  0
 18 19  2  0
 19 20  1  0
 19 31  1  0
 20 21  1  0
 21 22  2  0
 21 23  1  0
 23 24  1  0
 23 39  1  0
 24 25  2  0
 25 26  1  0
 26 27  2  0
 27 28  1  0
 28 29  1  0
 28 30  2  0
 30 24  1  0
 31 32  1  0
 31 38  1  0
 32 17  2  0
 33 34  1  0
 34 35  2  0
 35 36  1  0
 36 14  1  0
 36 37  2  0
 37 11  1  0
M  END
> <CMPD_CHEMBLID>
CHEMBL215152

> <STANDARD_TYPE>
Ki

> <RELATION>
>

> <STANDARD_VALUE>
1584.89

> <STANDARD_UNITS>
nM

> <Molecular_Weight>
507.5599

$$$$

  SciTegic11272012012D

 36 39  0  0  0  0            999 V2000
    2.7167   -0.7388    0.0000 C   0  0
    2.1444   -0.4100    0.0000 N   0  0
    1.4302   -0.8237    0.0000 C   0  0
    1.4313   -1.4837    0.0000 O   0  0
    0.7144   -0.4125    0.0000 C   0  0
    0.7144    0.4125    0.0000 C   0  0
    0.0000    0.8250    0.0000 C   0  0
   -0.7144    0.4125    0.0000 C   0  0
   -0.7144   -0.4125    0.0000 C   0  0
    0.0000   -0.8250    0.0000 C   0  0
   -0.0017   -1.6504    0.0000 N   0  0
   -0.7171   -2.0622    0.0000 C   0  0
   -1.4302   -1.6472    0.0000 N   0  0
   -2.1462   -2.0573    0.0000 C   0  0
   -2.8604   -1.6435    0.0000 N   0  0
   -3.5761   -2.0548    0.0000 C   0  0
   -3.5762   -2.8799    0.0000 C   0  0
   -4.2906   -3.2924    0.0000 C   0  0
   -5.0051   -2.8799    0.0000 C   0  0
   -5.0051   -2.0549    0.0000 C   0  0
   -4.2906   -1.6424    0.0000 C   0  0
   -4.2924   -0.8169    0.0000 O   0  0
   -4.8644   -0.4877    0.0000 C   0  0
   -5.7199   -3.2926    0.0000 N   0  0
   -5.7213   -4.1176    0.0000 C   0  0
   -6.4364   -4.5290    0.0000 C   0  0
   -7.1502   -4.1153    0.0000 O   0  0
   -7.1489   -3.2903    0.0000 C   0  0
   -6.4338   -2.8790    0.0000 C   0  0
   -2.1490   -2.8822    0.0000 N   0  0
   -1.4359   -3.2972    0.0000 C   0  0
   -0.7201   -2.8872    0.0000 C   0  0
   -0.1496   -3.2191    0.0000 Cl  0  0
   -2.8595   -1.0935    0.0000 H   0  0
    0.4742   -1.9263    0.0000 H   0  0
    2.1435    0.1400    0.0000 H   0  0
  1  2  1  0
  2  3  1  0
  2 36  1  0
  3  4  2  0
  3  5  1  0
  5  6  2  0
  6  7  1  0
  7  8  2  0
  8  9  1  0
  9 10  2  0
 10  5  1  0
 10 11  1  0
 11 12  1  0
 11 35  1  0
 12 13  2  0
 13 14  1  0
 14 15  1  0
 14 30  2  0
 15 16  1  0
 15 34  1  0
 16 17  2  0
 17 18  1  0
 18 19  2  0
 19 20  1  0
 19 24  1  0
 20 21  2  0
 21 16  1  0
 21 22  1  0
 22 23  1  0
 24 25  1  0
 25 26  1  0
 26 27  1  0
 27 28  1  0
 28 29  1  0
 29 24  1  0
 30 31  1  0
 31 32  2  0
 32 12  1  0
 32 33  1  0
M  END
> <CMPD_CHEMBLID>
CHEMBL458997

> <STANDARD_TYPE>
Ki

> <RELATION>
>

> <STANDARD_VALUE>
1584.89

> <STANDARD_UNITS>
nM

> <Molecular_Weight>
468.936

$$$$

  SciTegic11272012012D

 19 21  0  0  0  0            999 V2000
    2.7094   -3.2213    0.0000 C   0  0
    2.1389   -2.8893    0.0000 C   0  0
    1.5663   -3.2176    0.0000 O   0  0
    2.1419   -2.0639    0.0000 C   0  0
    2.8570   -1.6525    0.0000 C   0  0
    2.8583   -0.8275    0.0000 C   0  0
    2.1445   -0.4139    0.0000 C   0  0
    1.4293   -0.8252    0.0000 C   0  0
    1.4281   -1.6502    0.0000 C   0  0
    0.7145   -0.4125    0.0000 C   0  0
    0.7145    0.4125    0.0000 C   0  0
    0.0000    0.8250    0.0000 N   0  0
   -0.7145    0.4125    0.0000 C   0  0
   -1.4986    0.6674    0.0000 N   0  0
   -1.9836    0.0000    0.0000 C   0  0
   -1.4986   -0.6674    0.0000 C   0  0
   -0.7145   -0.4125    0.0000 C   0  0
    0.0000   -0.8250    0.0000 C   0  0
   -1.6685    1.1905    0.0000 H   0  0
  1  2  1  0
  2  3  2  0
  2  4  1  0
  4  5  2  0
  5  6  1  0
  6  7  2  0
  7  8  1  0
  8  9  2  0
  8 10  1  0
  9  4  1  0
 10 11  2  0
 11 12  1  0
 12 13  2  0
 13 14  1  0
 14 15  1  0
 14 19  1  0
 15 16  2  0
 16 17  1  0
 17 13  1  0
 17 18  2  0
 18 10  1  0
M  END
> <CMPD_CHEMBLID>
CHEMBL2000568

> <STANDARD_TYPE>
Ki

> <RELATION>
>

> <STANDARD_VALUE>
1584.89

> <STANDARD_UNITS>
nM

> <Molecular_Weight>
236.26858

$$$$

  SciTegic11272012012D

 24 27  0  0  0  0            999 V2000
    0.1382   -2.3903    0.0000 C   0  0
    0.7109   -2.0622    0.0000 S   0  0
    0.1404   -1.7304    0.0000 O   0  0
    0.7086   -2.7222    0.0000 O   0  0
    1.4273   -1.6522    0.0000 N   0  0
    1.4285   -0.8267    0.0000 C   0  0
    0.7145   -0.4125    0.0000 C   0  0
    0.7145    0.4125    0.0000 C   0  0
    0.0000    0.8250    0.0000 C   0  0
   -0.7145    0.4125    0.0000 C   0  0
   -1.4290    0.8250    0.0000 N   0  0
   -2.1435    0.4125    0.0000 C   0  0
   -2.7151    0.7425    0.0000 O   0  0
   -2.1435   -0.4125    0.0000 C   0  0
   -2.7563   -0.9642    0.0000 C   0  0
   -2.4208   -1.7179    0.0000 C   0  0
   -1.6003   -1.6316    0.0000 C   0  0
   -1.4290   -0.8250    0.0000 N   0  0
   -0.7145   -0.4125    0.0000 C   0  0
    0.0000   -0.8250    0.0000 C   0  0
    2.1414   -2.0664    0.0000 C   0  0
    2.5104   -2.7557    0.0000 C   0  0
    2.9229   -2.0412    0.0000 C   0  0
   -1.4290    1.3750    0.0000 H   0  0
  1  2  1  0
  2  3  2  0
  2  4  2  0
  2  5  1  0
  5  6  1  0
  5 21  1  0
  6  7  1  0
  7  8  2  0
  8  9  1  0
  9 10  2  0
 10 11  1  0
 11 12  1  0
 11 24  1  0
 12 13  2  0
 12 14  1  0
 14 15  2  0
 15 16  1  0
 16 17  2  0
 17 18  1  0
 18 14  1  0
 18 19  1  0
 19 10  1  0
 19 20  2  0
 20  7  1  0
 21 22  1  0
 22 23  1  0
 23 21  1  0
M  END
> <CMPD_CHEMBLID>
CHEMBL1978448

> <STANDARD_TYPE>
Ki

> <RELATION>
>

> <STANDARD_VALUE>
1584.89

> <STANDARD_UNITS>
nM

> <Molecular_Weight>
331.38948

$$$$

  SciTegic11272012012D

 31 34  0  0  0  0            999 V2000
    3.4280   -1.9834    0.0000 C   0  0
    2.8570   -1.6525    0.0000 N   0  0
    2.1419   -2.0639    0.0000 C   0  0
    1.4281   -1.6502    0.0000 C   0  0
    1.4293   -0.8252    0.0000 C   0  0
    2.1445   -0.4139    0.0000 C   0  0
    2.1475    0.4116    0.0000 O   0  0
    2.8583   -0.8275    0.0000 C   0  0
    0.7144   -0.4125    0.0000 C   0  0
    0.7144    0.4125    0.0000 C   0  0
    1.4285    0.8267    0.0000 O   0  0
    0.0000    0.8250    0.0000 C   0  0
   -0.7144    0.4125    0.0000 C   0  0
   -1.4285    0.8267    0.0000 O   0  0
   -0.7144   -0.4125    0.0000 C   0  0
   -1.4290   -0.8250    0.0000 C   0  0
   -2.0005   -0.4950    0.0000 O   0  0
   -1.4290   -1.6500    0.0000 C   0  0
   -0.7144   -2.0625    0.0000 C   0  0
    0.0000   -1.6500    0.0000 O   0  0
    0.0000   -0.8250    0.0000 C   0  0
   -0.7144   -2.8879    0.0000 C   0  0
    0.0007   -3.2993    0.0000 C   0  0
    0.0020   -4.1243    0.0000 C   0  0
   -0.7118   -4.5380    0.0000 C   0  0
   -1.4270   -4.1266    0.0000 C   0  0
   -1.4283   -3.3016    0.0000 C   0  0
   -2.0004   -2.9725    0.0000 Cl  0  0
   -1.4277    1.3767    0.0000 H   0  0
    1.4277    1.3767    0.0000 H   0  0
    2.6247    0.6851    0.0000 H   0  0
  1  2  1  0
  2  3  1  0
  3  4  1  0
  4  5  1  0
  5  6  1  0
  5  9  1  0
  6  7  1  0
  6  8  1  0
  7 31  1  0
  8  2  1  0
  9 10  2  0
 10 11  1  0
 10 12  1  0
 11 30  1  0
 12 13  2  0
 13 14  1  0
 13 15  1  0
 14 29  1  0
 15 16  1  0
 16 17  2  0
 16 18  1  0
 18 19  2  0
 19 20  1  0
 19 22  1  0
 20 21  1  0
 21  9  1  0
 21 15  2  0
 22 23  2  0
 23 24  1  0
 24 25  2  0
 25 26  1  0
 26 27  2  0
 27 22  1  0
 27 28  1  0
M  END
> <CMPD_CHEMBLID>
CHEMBL422897

> <STANDARD_TYPE>
Ki

> <RELATION>
>

> <STANDARD_VALUE>
1584.89

> <STANDARD_UNITS>
nM

> <Molecular_Weight>
401.8402

$$$$

  SciTegic11272012012D

 35 40  0  0  0  0            999 V2000
    3.4280   -1.9834    0.0000 C   0  0
    2.8570   -1.6525    0.0000 N   0  0
    2.8583   -0.8275    0.0000 C   0  0
    2.1445   -0.4139    0.0000 C   0  0
    1.4293   -0.8252    0.0000 N   0  0
    1.4281   -1.6502    0.0000 C   0  0
    2.1419   -2.0639    0.0000 C   0  0
    0.7144   -0.4125    0.0000 C   0  0
    0.7144    0.4125    0.0000 N   0  0
    0.0000    0.8250    0.0000 C   0  0
    0.0000    1.6504    0.0000 C   0  0
    0.6667    2.1244    0.0000 C   0  0
    0.4105    2.9086    0.0000 C   0  0
    0.7976    3.4432    0.0000 O   0  0
   -0.4145    2.9073    0.0000 N   0  0
   -0.6682    2.1223    0.0000 C   0  0
   -1.2944    1.9136    0.0000 O   0  0
    1.4506    1.8659    0.0000 C   0  0
    1.6229    1.0657    0.0000 C   0  0
    2.4448    0.9942    0.0000 N   0  0
    2.7665    1.7534    0.0000 C   0  0
    3.5465    2.0223    0.0000 C   0  0
    3.7035    2.8322    0.0000 C   0  0
    3.0807    3.3732    0.0000 C   0  0
    2.3007    3.1043    0.0000 C   0  0
    2.1436    2.2944    0.0000 C   0  0
   -0.7144    0.4125    0.0000 C   0  0
   -1.4290    0.8250    0.0000 C   0  0
   -2.1434    0.4125    0.0000 C   0  0
   -2.1434   -0.4125    0.0000 C   0  0
   -1.4290   -0.8250    0.0000 C   0  0
   -0.7144   -0.4125    0.0000 C   0  0
    0.0000   -0.8250    0.0000 N   0  0
    2.7283    0.5229    0.0000 H   0  0
   -0.7385    3.3518    0.0000 H   0  0
  1  2  1  0
  2  3  1  0
  3  4  1  0
  4  5  1  0
  5  6  1  0
  5  8  1  0
  6  7  1  0
  7  2  1  0
  8  9  2  0
  9 10  1  0
 10 11  1  0
 10 27  2  0
 11 12  2  0
 12 13  1  0
 12 18  1  0
 13 14  2  0
 13 15  1  0
 15 16  1  0
 15 35  1  0
 16 11  1  0
 16 17  2  0
 18 19  2  0
 19 20  1  0
 20 21  1  0
 20 34  1  0
 21 22  2  0
 22 23  1  0
 23 24  2  0
 24 25  1  0
 25 26  2  0
 26 18  1  0
 26 21  1  0
 27 28  1  0
 28 29  2  0
 29 30  1  0
 30 31  2  0
 31 32  1  0
 32 27  1  0
 32 33  2  0
 33  8  1  0
M  END
> <CMPD_CHEMBLID>
CHEMBL565612

> <STANDARD_TYPE>
Ki

> <RELATION>
>

> <STANDARD_VALUE>
1584.89

> <STANDARD_UNITS>
nM

> <Molecular_Weight>
438.48118

$$$$

  SciTegic11272012012D

 31 34  0  0  0  0            999 V2000
    3.4757    1.9128    0.0000 O   0  0
    4.2964    2.0016    0.0000 C   0  0
    4.6279    2.7576    0.0000 N   0  0
    4.1395    3.4230    0.0000 C   0  0
    4.4697    4.1791    0.0000 C   0  0
    3.9802    4.8431    0.0000 C   0  0
    3.1603    4.7512    0.0000 C   0  0
    2.8300    3.9951    0.0000 C   0  0
    2.1741    3.9216    0.0000 Cl  0  0
    3.3195    3.3311    0.0000 C   0  0
    4.7848    1.3362    0.0000 N   0  0
    4.4538    0.5816    0.0000 C   0  0
    4.8688   -0.1315    0.0000 N   0  0
    4.3189   -0.7465    0.0000 C   0  0
    3.5745   -0.4075    0.0000 C   0  0
    2.8602   -0.8213    0.0000 C   0  0
    2.1445   -0.4100    0.0000 C   0  0
    1.4302   -0.8237    0.0000 N   0  0
    0.7145   -0.4125    0.0000 C   0  0
    0.7145    0.4125    0.0000 N   0  0
    0.0000    0.8250    0.0000 C   0  0
   -0.7145    0.4125    0.0000 N   0  0
   -0.7145   -0.4125    0.0000 C   0  0
   -1.3273   -0.9642    0.0000 C   0  0
   -0.9918   -1.7178    0.0000 C   0  0
   -0.1713   -1.6316    0.0000 S   0  0
    0.0000   -0.8250    0.0000 C   0  0
    3.6475    0.4072    0.0000 S   0  0
    1.1908    0.6875    0.0000 H   0  0
    5.3315    1.3966    0.0000 H   0  0
    3.1507    2.3564    0.0000 H   0  0
  1  2  1  0
  1 31  1  0
  2  3  2  0
  2 11  1  0
  3  4  1  0
  4  5  2  0
  5  6  1  0
  6  7  2  0
  7  8  1  0
  8  9  1  0
  8 10  2  0
 10  4  1  0
 11 12  1  0
 11 30  1  0
 12 13  2  0
 13 14  1  0
 14 15  2  0
 15 16  1  0
 15 28  1  0
 16 17  1  0
 17 18  1  0
 18 19  2  0
 19 20  1  0
 20 21  1  0
 20 29  1  0
 21 22  2  0
 22 23  1  0
 23 24  1  0
 24 25  2  0
 25 26  1  0
 26 27  1  0
 27 19  1  0
 27 23  2  0
 28 12  1  0
M  END
> <CMPD_CHEMBLID>
CHEMBL482767

> <STANDARD_TYPE>
Ki

> <RELATION>
>

> <STANDARD_VALUE>
1584.89

> <STANDARD_UNITS>
nM

> <Molecular_Weight>
430.9343

$$$$

  SciTegic11272012012D

 34 38  0  0  0  0            999 V2000
    0.9886   -3.1466    0.0000 N   0  0
    1.4024   -2.4324    0.0000 C   0  0
    2.0624   -2.4335    0.0000 O   0  0
    0.9918   -1.7178    0.0000 C   0  0
    1.3273   -0.9642    0.0000 C   0  0
    0.7145   -0.4125    0.0000 C   0  0
    0.7145    0.4125    0.0000 C   0  0
    0.0000    0.8250    0.0000 C   0  0
   -0.7145    0.4125    0.0000 N   0  0
   -0.7145   -0.4125    0.0000 C   0  0
   -1.4302   -0.8238    0.0000 N   0  0
    0.0000   -0.8250    0.0000 C   0  0
    0.1713   -1.6316    0.0000 S   0  0
    1.4293    0.8252    0.0000 C   0  0
    2.1445    0.4139    0.0000 C   0  0
    2.8583    0.8275    0.0000 C   0  0
    2.8570    1.6526    0.0000 C   0  0
    3.5704    2.0679    0.0000 N   0  0
    3.5679    2.8934    0.0000 C   0  0
    4.2329    3.3696    0.0000 O   0  0
    3.9740    4.1525    0.0000 C   0  0
    4.3829    4.8690    0.0000 C   0  0
    3.9668    5.5814    0.0000 C   0  0
    3.1417    5.5772    0.0000 C   0  0
    2.7329    4.8607    0.0000 C   0  0
    3.1490    4.1483    0.0000 C   0  0
    2.8980    3.3629    0.0000 N   0  0
    2.1419    2.0639    0.0000 C   0  0
    1.4280    1.6502    0.0000 C   0  0
    4.0476    1.7945    0.0000 H   0  0
   -1.9062   -0.5481    0.0000 H   0  0
   -1.4312   -1.3738    0.0000 H   0  0
    1.2626   -3.6235    0.0000 H   0  0
    0.4386   -3.1457    0.0000 H   0  0
  1  2  1  0
  1 33  1  0
  1 34  1  0
  2  3  2  0
  2  4  1  0
  4  5  2  0
  5  6  1  0
  6  7  2  0
  7  8  1  0
  7 14  1  0
  8  9  2  0
  9 10  1  0
 10 11  1  0
 10 12  2  0
 11 31  1  0
 11 32  1  0
 12  6  1  0
 12 13  1  0
 13  4  1  0
 14 15  2  0
 15 16  1  0
 16 17  2  0
 17 18  1  0
 17 28  1  0
 18 19  1  0
 18 30  1  0
 19 20  1  0
 20 21  1  0
 21 22  2  0
 22 23  1  0
 23 24  2  0
 24 25  1  0
 25 26  2  0
 26 21  1  0
 26 27  1  0
 27 19  2  0
 28 29  2  0
 29 14  1  0
M  END
> <CMPD_CHEMBLID>
CHEMBL1993904

> <STANDARD_TYPE>
Ki

> <RELATION>
=

> <STANDARD_VALUE>
1584.89

> <STANDARD_UNITS>
nM

> <Molecular_Weight>
401.4411

$$$$

  SciTegic11272012012D

 33 36  0  0  0  0            999 V2000
    2.0013   -0.4930    0.0000 C   0  0
    1.4302   -0.8237    0.0000 O   0  0
    0.7145   -0.4125    0.0000 C   0  0
    0.7145    0.4125    0.0000 N   0  0
    0.0000    0.8250    0.0000 C   0  0
   -0.7145    0.4125    0.0000 C   0  0
   -0.7145   -0.4125    0.0000 N   0  0
   -1.3273   -0.9642    0.0000 C   0  0
   -2.1347   -0.7924    0.0000 C   0  0
   -2.4465   -0.0316    0.0000 C   0  0
   -3.2641    0.0788    0.0000 C   0  0
   -3.7684   -0.5742    0.0000 N   0  0
   -3.4552   -1.3373    0.0000 C   0  0
   -3.9585   -1.9917    0.0000 N   0  0
   -3.6440   -2.7549    0.0000 C   0  0
   -4.1473   -3.4092    0.0000 C   0  0
   -4.8015   -3.3220    0.0000 C   0  0
   -4.3990   -2.7990    0.0000 C   0  0
   -3.8328   -4.1724    0.0000 C   0  0
   -4.3360   -4.8266    0.0000 O   0  0
   -2.6376   -1.4477    0.0000 N   0  0
   -0.9918   -1.7178    0.0000 C   0  0
   -0.1713   -1.6316    0.0000 N   0  0
    0.0000   -0.8250    0.0000 C   0  0
   -1.4045   -2.4327    0.0000 C   0  0
   -2.2244   -2.4941    0.0000 C   0  0
   -2.5821   -3.2376    0.0000 C   0  0
   -2.1169   -3.9190    0.0000 C   0  0
   -2.4030   -4.5137    0.0000 F   0  0
   -1.2943   -3.8569    0.0000 C   0  0
   -0.9367   -3.1134    0.0000 C   0  0
   -4.1265   -5.3352    0.0000 H   0  0
   -4.5037   -1.9190    0.0000 H   0  0
  1  2  1  0
  2  3  1  0
  3  4  2  0
  4  5  1  0
  5  6  2  0
  6  7  1  0
  7  8  1  0
  8  9  1  0
  8 22  2  0
  9 10  2  0
 10 11  1  0
 11 12  2  0
 12 13  1  0
 13 14  1  0
 13 21  2  0
 14 15  1  0
 14 33  1  0
 15 16  1  0
 16 17  1  0
 16 18  1  0
 16 19  1  0
 19 20  1  0
 20 32  1  0
 21  9  1  0
 22 23  1  0
 22 25  1  0
 23 24  2  0
 24  3  1  0
 24  7  1  0
 25 26  2  0
 26 27  1  0
 27 28  2  0
 28 29  1  0
 28 30  1  0
 30 31  2  0
 31 25  1  0
M  END
> <CMPD_CHEMBLID>
CHEMBL2005792

> <STANDARD_TYPE>
Ki

> <RELATION>
>

> <STANDARD_VALUE>
1584.89

> <STANDARD_UNITS>
nM

> <Molecular_Weight>
422.45542

$$$$

  SciTegic11272012012D

 24 27  0  0  0  0            999 V2000
    3.1735    3.1162    0.0000 O   0  5
    2.5493    2.9018    0.0000 N   0  3
    2.0516    3.3353    0.0000 O   0  0
    2.3914    2.0916    0.0000 C   0  0
    3.0128    1.5488    0.0000 C   0  0
    2.8533    0.7393    0.0000 C   0  0
    2.0730    0.4732    0.0000 C   0  0
    1.7488   -0.2855    0.0000 N   0  0
    0.9269   -0.2115    0.0000 C   0  0
    0.7433    0.5928    0.0000 C   0  0
    0.0000    0.9507    0.0000 C   0  0
   -0.7433    0.5927    0.0000 C   0  0
   -1.2593    1.0043    0.0000 O   0  0
   -0.9269   -0.2116    0.0000 N   0  0
   -0.4125   -0.8566    0.0000 C   0  0
   -0.8250   -1.5717    0.0000 C   0  0
   -0.4125   -2.2862    0.0000 C   0  0
    0.4125   -2.2862    0.0000 C   0  0
    0.8250   -1.5717    0.0000 C   0  0
    0.4125   -0.8566    0.0000 C   0  0
    1.4517    1.0160    0.0000 C   0  0
    1.6107    1.8249    0.0000 C   0  0
   -1.4631   -0.3340    0.0000 H   0  0
    2.0309   -0.7576    0.0000 H   0  0
  1  2  1  0
  2  3  2  0
  2  4  1  0
  4  5  2  0
  5  6  1  0
  6  7  2  0
  7  8  1  0
  8  9  1  0
  8 24  1  0
  9 10  2  0
 10 11  1  0
 10 21  1  0
 11 12  1  0
 12 13  2  0
 12 14  1  0
 14 15  1  0
 14 23  1  0
 15 16  2  0
 16 17  1  0
 17 18  2  0
 18 19  1  0
 19 20  2  0
 20  9  1  0
 20 15  1  0
 21  7  1  0
 21 22  2  0
 22  4  1  0
M  CHG  2   1  -1   2   1
M  END
> <CMPD_CHEMBLID>
CHEMBL50894

> <STANDARD_TYPE>
Ki

> <RELATION>
=

> <STANDARD_VALUE>
1584.89

> <STANDARD_UNITS>
nM

> <Molecular_Weight>
293.27684

$$$$

  SciTegic11272012012D

 41 44  0  0  0  0            999 V2000
    7.1181   -0.8605    0.0000 C   0  0
    6.6633   -1.3387    0.0000 C   0  0
    6.8963   -2.1306    0.0000 N   0  0
    7.6990   -2.3228    0.0000 C   0  0
    8.2673   -1.7242    0.0000 C   0  0
    9.0700   -1.9164    0.0000 N   0  0
    6.3280   -2.7294    0.0000 C   0  0
    6.5156   -3.3621    0.0000 O   0  0
    5.5253   -2.5371    0.0000 C   0  0
    4.9564   -3.1346    0.0000 C   0  0
    4.1545   -2.9408    0.0000 C   0  0
    3.9214   -2.1494    0.0000 C   0  0
    4.4885   -1.5543    0.0000 C   0  0
    5.2921   -1.7457    0.0000 C   0  0
    4.3189   -0.7465    0.0000 N   0  0
    4.8688   -0.1315    0.0000 N   0  0
    4.4538    0.5816    0.0000 C   0  0
    3.6475    0.4072    0.0000 C   0  0
    3.5745   -0.4075    0.0000 C   0  0
    2.8602   -0.8213    0.0000 N   0  0
    2.1445   -0.4100    0.0000 C   0  0
    2.1433    0.2500    0.0000 O   0  0
    1.4302   -0.8237    0.0000 N   0  0
    0.7145   -0.4125    0.0000 C   0  0
    0.7145    0.4125    0.0000 C   0  0
    0.0000    0.8250    0.0000 C   0  0
   -0.7145    0.4125    0.0000 C   0  0
   -0.7145   -0.4125    0.0000 C   0  0
   -1.4290   -0.8250    0.0000 C   0  0
   -1.4290   -1.6500    0.0000 C   0  0
   -0.7145   -2.0625    0.0000 C   0  0
    0.0000   -1.6500    0.0000 C   0  0
    0.0000   -0.8250    0.0000 C   0  0
    4.7864    1.3355    0.0000 C   0  0
    5.4425    1.4072    0.0000 C   0  0
    4.3964    1.8680    0.0000 C   0  0
    5.0525    1.9395    0.0000 C   0  0
    1.4312   -1.3738    0.0000 H   0  0
    2.8612   -1.3713    0.0000 H   0  0
    9.4487   -1.5175    0.0000 H   0  0
    9.2264   -2.4437    0.0000 H   0  0
  1  2  1  0
  2  3  1  0
  3  4  1  0
  3  7  1  0
  4  5  1  0
  5  6  1  0
  6 40  1  0
  6 41  1  0
  7  8  2  0
  7  9  1  0
  9 10  2  0
 10 11  1  0
 11 12  2  0
 12 13  1  0
 13 14  2  0
 13 15  1  0
 14  9  1  0
 15 16  1  0
 16 17  2  0
 17 18  1  0
 17 34  1  0
 18 19  2  0
 19 15  1  0
 19 20  1  0
 20 21  1  0
 20 39  1  0
 21 22  2  0
 21 23  1  0
 23 24  1  0
 23 38  1  0
 24 25  2  0
 25 26  1  0
 26 27  2  0
 27 28  1  0
 28 29  2  0
 29 30  1  0
 30 31  2  0
 31 32  1  0
 32 33  2  0
 33 24  1  0
 33 28  1  0
 34 35  1  0
 34 36  1  0
 34 37  1  0
M  END
> <CMPD_CHEMBLID>
CHEMBL2004637

> <STANDARD_TYPE>
Ki

> <RELATION>
=

> <STANDARD_VALUE>
1584.89

> <STANDARD_UNITS>
nM

> <Molecular_Weight>
498.61926

$$$$

  SciTegic11272012012D

 26 29  0  0  0  0            999 V2000
    4.1410    0.7520    0.0000 Cl  0  0
    3.5706    0.4200    0.0000 C   0  0
    3.5734   -0.4050    0.0000 C   0  0
    2.8604   -0.8200    0.0000 C   0  0
    2.1444   -0.4100    0.0000 C   0  0
    1.4302   -0.8237    0.0000 N   0  0
    0.7144   -0.4125    0.0000 C   0  0
    0.7144    0.4125    0.0000 N   0  0
    0.0000    0.8250    0.0000 N   0  0
   -0.7144    0.4125    0.0000 C   0  0
   -1.4285    0.8267    0.0000 C   0  0
   -1.4273    1.6521    0.0000 C   0  0
   -2.1404    2.0672    0.0000 C   0  0
   -2.1375    2.8922    0.0000 C   0  0
   -1.4216    3.3022    0.0000 N   0  0
   -0.7086    2.8872    0.0000 C   0  0
   -0.7114    2.0622    0.0000 C   0  0
   -0.7144   -0.4125    0.0000 C   0  0
   -1.4289   -0.8250    0.0000 C   0  0
   -1.4289   -1.6500    0.0000 C   0  0
   -0.7144   -2.0625    0.0000 C   0  0
    0.0000   -1.6500    0.0000 C   0  0
    0.0000   -0.8250    0.0000 C   0  0
    2.1416    0.4150    0.0000 C   0  0
    2.8546    0.8300    0.0000 C   0  0
    1.4311   -1.3737    0.0000 H   0  0
  1  2  1  0
  2  3  2  0
  3  4  1  0
  4  5  2  0
  5  6  1  0
  5 24  1  0
  6  7  1  0
  6 26  1  0
  7  8  2  0
  8  9  1  0
  9 10  2  0
 10 11  1  0
 10 18  1  0
 11 12  1  0
 12 13  2  0
 13 14  1  0
 14 15  2  0
 15 16  1  0
 16 17  2  0
 17 12  1  0
 18 19  2  0
 19 20  1  0
 20 21  2  0
 21 22  1  0
 22 23  2  0
 23  7  1  0
 23 18  1  0
 24 25  2  0
 25  2  1  0
M  END
> <CMPD_CHEMBLID>
CHEMBL101253

> <STANDARD_TYPE>
Ki

> <RELATION>
>

> <STANDARD_VALUE>
1584.89

> <STANDARD_UNITS>
nM

> <Molecular_Weight>
346.8129

$$$$

  SciTegic11272012012D

 35 38  0  0  0  0            999 V2000
    1.4302   -0.8237    0.0000 N   0  0
    0.7144   -0.4125    0.0000 C   0  0
    0.7144    0.4125    0.0000 C   0  0
    0.0000    0.8250    0.0000 C   0  0
   -0.7144    0.4125    0.0000 C   0  0
   -0.7144   -0.4125    0.0000 C   0  0
   -1.4290   -0.8250    0.0000 N   0  0
   -1.4290   -1.6500    0.0000 C   0  0
   -0.7144   -2.0625    0.0000 C   0  0
    0.0000   -1.6500    0.0000 N   0  0
    0.0000   -0.8250    0.0000 C   0  0
    1.4293    0.8252    0.0000 C   0  0
    2.1445    0.4139    0.0000 C   0  0
    2.8583    0.8275    0.0000 C   0  0
    2.8570    1.6525    0.0000 C   0  0
    3.5703    2.0678    0.0000 N   0  0
    3.5679    2.8933    0.0000 C   0  0
    2.9952    3.2214    0.0000 O   0  0
    4.2812    3.3086    0.0000 N   0  0
    4.2787    4.1341    0.0000 C   0  0
    4.9911    4.5503    0.0000 C   0  0
    4.9869    5.3753    0.0000 C   0  0
    4.2704    5.7841    0.0000 C   0  0
    3.5580    5.3680    0.0000 C   0  0
    3.5621    4.5430    0.0000 C   0  0
    2.8410    5.7771    0.0000 C   0  0
    2.8373    6.4371    0.0000 F   0  0
    2.2712    5.4441    0.0000 F   0  0
    2.2677    6.1040    0.0000 F   0  0
    2.1419    2.0639    0.0000 C   0  0
    1.4280    1.6502    0.0000 C   0  0
    4.7584    3.0352    0.0000 H   0  0
    4.0476    1.7944    0.0000 H   0  0
    1.9061   -0.5481    0.0000 H   0  0
    1.4312   -1.3737    0.0000 H   0  0
  1  2  1  0
  1 34  1  0
  1 35  1  0
  2  3  2  0
  3  4  1  0
  3 12  1  0
  4  5  2  0
  5  6  1  0
  6  7  2  0
  7  8  1  0
  8  9  2  0
  9 10  1  0
 10 11  2  0
 11  2  1  0
 11  6  1  0
 12 13  2  0
 13 14  1  0
 14 15  2  0
 15 16  1  0
 15 30  1  0
 16 17  1  0
 16 33  1  0
 17 18  2  0
 17 19  1  0
 19 20  1  0
 19 32  1  0
 20 21  2  0
 21 22  1  0
 22 23  2  0
 23 24  1  0
 24 25  2  0
 24 26  1  0
 25 20  1  0
 26 27  1  0
 26 28  1  0
 26 29  1  0
 30 31  2  0
 31 12  1  0
M  END
> <CMPD_CHEMBLID>
CHEMBL2004438

> <STANDARD_TYPE>
Ki

> <RELATION>
>

> <STANDARD_VALUE>
1584.89

> <STANDARD_UNITS>
nM

> <Molecular_Weight>
423.39055

$$$$

  SciTegic11272012012D

 42 45  0  0  0  0            999 V2000
   10.2802   -1.4714    0.0000 C   0  0
    9.6383   -1.3177    0.0000 C   0  0
    9.0701   -1.9164    0.0000 N   0  0
    9.3030   -2.7083    0.0000 C   0  0
    8.8482   -3.1865    0.0000 C   0  0
    8.2673   -1.7242    0.0000 C   0  0
    7.6991   -2.3228    0.0000 C   0  0
    6.8963   -2.1306    0.0000 N   0  0
    6.3280   -2.7294    0.0000 C   0  0
    6.5156   -3.3621    0.0000 O   0  0
    5.5253   -2.5371    0.0000 C   0  0
    4.9564   -3.1347    0.0000 C   0  0
    4.1545   -2.9408    0.0000 C   0  0
    3.9214   -2.1494    0.0000 C   0  0
    4.4886   -1.5543    0.0000 C   0  0
    5.2921   -1.7457    0.0000 C   0  0
    4.3189   -0.7465    0.0000 N   0  0
    4.8688   -0.1315    0.0000 N   0  0
    4.4538    0.5816    0.0000 C   0  0
    3.6475    0.4072    0.0000 C   0  0
    3.5745   -0.4075    0.0000 C   0  0
    2.8602   -0.8213    0.0000 N   0  0
    2.1445   -0.4100    0.0000 C   0  0
    2.1433    0.2500    0.0000 O   0  0
    1.4302   -0.8237    0.0000 N   0  0
    0.7145   -0.4125    0.0000 C   0  0
    0.7145    0.4125    0.0000 C   0  0
    0.0000    0.8250    0.0000 C   0  0
   -0.7145    0.4125    0.0000 C   0  0
   -0.7145   -0.4125    0.0000 C   0  0
   -1.4290   -0.8250    0.0000 C   0  0
   -1.4290   -1.6500    0.0000 C   0  0
   -0.7145   -2.0625    0.0000 C   0  0
    0.0000   -1.6500    0.0000 C   0  0
    0.0000   -0.8250    0.0000 C   0  0
    4.7864    1.3355    0.0000 C   0  0
    5.4425    1.4072    0.0000 C   0  0
    4.3964    1.8680    0.0000 C   0  0
    5.0525    1.9395    0.0000 C   0  0
    1.4312   -1.3738    0.0000 H   0  0
    2.8612   -1.3713    0.0000 H   0  0
    6.7399   -1.6033    0.0000 H   0  0
  1  2  1  0
  2  3  1  0
  3  4  1  0
  3  6  1  0
  4  5  1  0
  6  7  1  0
  7  8  1  0
  8  9  1  0
  8 42  1  0
  9 10  2  0
  9 11  1  0
 11 12  2  0
 12 13  1  0
 13 14  2  0
 14 15  1  0
 15 16  2  0
 15 17  1  0
 16 11  1  0
 17 18  1  0
 18 19  2  0
 19 20  1  0
 19 36  1  0
 20 21  2  0
 21 17  1  0
 21 22  1  0
 22 23  1  0
 22 41  1  0
 23 24  2  0
 23 25  1  0
 25 26  1  0
 25 40  1  0
 26 27  2  0
 27 28  1  0
 28 29  2  0
 29 30  1  0
 30 31  2  0
 31 32  1  0
 32 33  2  0
 33 34  1  0
 34 35  2  0
 35 26  1  0
 35 30  1  0
 36 37  1  0
 36 38  1  0
 36 39  1  0
M  END
> <CMPD_CHEMBLID>
CHEMBL1970290

> <STANDARD_TYPE>
Ki

> <RELATION>
=

> <STANDARD_VALUE>
1584.89

> <STANDARD_UNITS>
nM

> <Molecular_Weight>
526.67242

$$$$

  SciTegic11272012012D

 27 30  0  0  0  0            999 V2000
    2.0013   -0.4930    0.0000 C   0  0
    1.4302   -0.8237    0.0000 C   0  0
    0.7145   -0.4125    0.0000 C   0  0
    0.7145    0.4125    0.0000 N   0  0
    0.0000    0.8250    0.0000 C   0  0
   -0.0017    1.6505    0.0000 N   0  0
   -0.7172    2.0622    0.0000 C   0  0
   -0.7201    2.8872    0.0000 C   0  0
   -1.4360    3.2972    0.0000 C   0  0
   -2.1490    2.8823    0.0000 C   0  0
   -2.8653    3.2925    0.0000 N   0  0
   -2.8695    4.1175    0.0000 C   0  0
   -3.5861    4.5264    0.0000 C   0  0
   -4.2985    4.1103    0.0000 O   0  0
   -4.2943    3.2853    0.0000 C   0  0
   -3.5777    2.8764    0.0000 C   0  0
   -2.1462    2.0573    0.0000 C   0  0
   -2.7166    1.7253    0.0000 Cl  0  0
   -1.4303    1.6472    0.0000 C   0  0
   -0.7145    0.4125    0.0000 N   0  0
   -0.7145   -0.4125    0.0000 C   0  0
   -1.3273   -0.9642    0.0000 N   0  0
   -0.9918   -1.7178    0.0000 C   0  0
   -0.1713   -1.6316    0.0000 C   0  0
    0.0000   -0.8250    0.0000 C   0  0
   -1.8654   -0.8498    0.0000 H   0  0
    0.4741    1.9263    0.0000 H   0  0
  1  2  1  0
  2  3  1  0
  3  4  2  0
  4  5  1  0
  5  6  1  0
  5 20  2  0
  6  7  1  0
  6 27  1  0
  7  8  2  0
  8  9  1  0
  9 10  2  0
 10 11  1  0
 10 17  1  0
 11 12  1  0
 12 13  1  0
 13 14  1  0
 14 15  1  0
 15 16  1  0
 16 11  1  0
 17 18  1  0
 17 19  2  0
 19  7  1  0
 20 21  1  0
 21 22  1  0
 22 23  1  0
 22 26  1  0
 23 24  2  0
 24 25  1  0
 25  3  1  0
 25 21  2  0
M  END
> <CMPD_CHEMBLID>
CHEMBL2004118

> <STANDARD_TYPE>
Ki

> <RELATION>
=

> <STANDARD_VALUE>
1584.89

> <STANDARD_UNITS>
nM

> <Molecular_Weight>
357.8373

$$$$

  SciTegic11272012012D

 28 31  0  0  0  0            999 V2000
   -3.3308    0.8636    0.0000 N   0  0
   -3.1401    0.0605    0.0000 C   0  0
   -3.7387   -0.5072    0.0000 C   0  0
   -3.5463   -1.3095    0.0000 C   0  0
   -2.7554   -1.5441    0.0000 C   0  0
   -2.1568   -0.9764    0.0000 C   0  0
   -2.3491   -0.1741    0.0000 C   0  0
   -2.5614   -2.3465    0.0000 N   0  0
   -1.7696   -2.5800    0.0000 C   0  0
   -1.5745   -3.3817    0.0000 N   0  0
   -0.7828   -3.6135    0.0000 C   0  0
   -0.6267   -4.2548    0.0000 Cl  0  0
   -0.1861   -3.0438    0.0000 C   0  0
   -0.3810   -2.2449    0.0000 C   0  0
   -1.1730   -2.0103    0.0000 N   0  0
    0.1713   -1.6316    0.0000 C   0  0
    0.9918   -1.7178    0.0000 C   0  0
    1.3273   -0.9641    0.0000 N   0  0
    0.7144   -0.4125    0.0000 C   0  0
    0.7144    0.4125    0.0000 N   0  0
    0.0000    0.8250    0.0000 C   0  0
   -0.7144    0.4125    0.0000 C   0  0
   -0.7144   -0.4125    0.0000 C   0  0
    0.0000   -0.8250    0.0000 C   0  0
    1.8653   -0.8497    0.0000 H   0  0
   -2.9598   -2.7256    0.0000 H   0  0
   -2.9312    1.2415    0.0000 H   0  0
   -3.8578    1.0209    0.0000 H   0  0
  1  2  1  0
  1 27  1  0
  1 28  1  0
  2  3  1  0
  3  4  1  0
  4  5  1  0
  5  6  1  0
  5  8  1  0
  6  7  1  0
  7  2  1  0
  8  9  1  0
  8 26  1  0
  9 10  2  0
 10 11  1  0
 11 12  1  0
 11 13  2  0
 13 14  1  0
 14 15  2  0
 14 16  1  0
 15  9  1  0
 16 17  2  0
 17 18  1  0
 18 19  1  0
 18 25  1  0
 19 20  2  0
 20 21  1  0
 21 22  2  0
 22 23  1  0
 23 24  2  0
 24 16  1  0
 24 19  1  0
M  END
> <CMPD_CHEMBLID>
CHEMBL1973720

> <STANDARD_TYPE>
Ki

> <RELATION>
=

> <STANDARD_VALUE>
1584.89

> <STANDARD_UNITS>
nM

> <Molecular_Weight>
342.82596

$$$$

  SciTegic11272012012D

 42 43  0  0  0  0            999 V2000
    4.1410   -3.2277    0.0000 C   0  0
    3.5705   -2.8959    0.0000 C   0  0
    2.8541   -3.3059    0.0000 C   0  0
    2.1401   -2.8917    0.0000 N   0  0
    2.1413   -2.0663    0.0000 C   0  0
    2.7134   -1.7373    0.0000 O   0  0
    1.4273   -1.6521    0.0000 C   0  0
    1.4285   -0.8267    0.0000 C   0  0
    2.1436   -0.4145    0.0000 C   0  0
    2.1460    0.4105    0.0000 C   0  0
    2.8617    0.8209    0.0000 C   0  0
    3.5749    0.4064    0.0000 C   0  0
    3.5726   -0.4186    0.0000 C   0  0
    2.8569   -0.8291    0.0000 C   0  0
    4.2909    0.8171    0.0000 C   0  0
    4.8615    0.4853    0.0000 F   0  0
    4.2889    0.1571    0.0000 F   0  0
    4.2938    1.6425    0.0000 P   0  0
    3.7233    1.9743    0.0000 O   0  0
    5.0098    2.0532    0.0000 O   0  0
    3.5632    1.2251    0.0000 O   0  0
    0.7109   -2.0621    0.0000 N   0  0
   -0.0026   -1.6472    0.0000 C   0  0
   -0.5755   -1.9750    0.0000 O   0  0
   -0.0004   -0.9872    0.0000 C   0  0
    2.8530   -4.1314    0.0000 C   0  0
    2.2808   -4.4604    0.0000 O   0  0
    3.5670   -4.5456    0.0000 N   0  0
    4.1391   -4.2166    0.0000 C   0  0
    3.5657   -5.3710    0.0000 C   0  0
    4.2797   -5.7852    0.0000 C   0  0
    4.2786   -6.6106    0.0000 C   0  0
    4.9926   -7.0248    0.0000 C   0  0
    4.9926   -7.8498    0.0000 C   0  0
    5.7071   -8.2623    0.0000 C   0  0
    6.4216   -7.8498    0.0000 C   0  0
    6.4216   -7.0249    0.0000 C   0  0
    5.7071   -6.6124    0.0000 C   0  0
    0.7089   -2.6121    0.0000 H   0  0
    3.0880    1.5020    0.0000 H   0  0
    5.0117    2.6032    0.0000 H   0  0
    1.6633   -3.1659    0.0000 H   0  0
  1  2  1  0
  2  3  1  0
  3  4  1  0
  3 26  1  0
  4  5  1  0
  4 42  1  0
  5  6  2  0
  5  7  1  0
  7  8  1  0
  7 22  1  0
  8  9  1  0
  9 10  2  0
 10 11  1  0
 11 12  2  0
 12 13  1  0
 12 15  1  0
 13 14  2  0
 14  9  1  0
 15 16  1  0
 15 17  1  0
 15 18  1  0
 18 19  2  0
 18 20  1  0
 18 21  1  0
 20 41  1  0
 21 40  1  0
 22 23  1  0
 22 39  1  0
 23 24  2  0
 23 25  1  0
 26 27  2  0
 26 28  1  0
 28 29  1  0
 28 30  1  0
 30 31  1  0
 31 32  1  0
 32 33  1  0
 33 34  1  0
 34 35  1  0
 35 36  1  0
 36 37  1  0
 37 38  1  0
 38 33  1  0
M  END
> <CMPD_CHEMBLID>
CHEMBL298813

> <STANDARD_TYPE>
IC50

> <RELATION>
=

> <STANDARD_VALUE>
1600

> <STANDARD_UNITS>
nM

> <Molecular_Weight>
559.58287

$$$$

  SciTegic11272012012D

 28 31  0  0  0  0            999 V2000
    1.9982   -1.9833    0.0000 C   0  0
    1.4273   -1.6522    0.0000 C   0  0
    1.4285   -0.8267    0.0000 O   0  0
    0.7145   -0.4125    0.0000 C   0  0
    0.7145    0.4125    0.0000 C   0  0
    0.0000    0.8250    0.0000 C   0  0
   -0.7145    0.4125    0.0000 C   0  0
   -1.4290    0.8250    0.0000 C   0  0
   -2.1435    0.4125    0.0000 C   0  0
   -2.1435   -0.4125    0.0000 C   0  0
   -1.4290   -0.8250    0.0000 C   0  0
   -0.7145   -0.4125    0.0000 C   0  0
    0.0000   -0.8250    0.0000 C   0  0
   -2.8583    0.8252    0.0000 C   0  0
   -3.6011    0.4826    0.0000 N   0  0
   -4.1540    1.0949    0.0000 N   0  0
   -4.9733    1.0061    0.0000 C   0  0
   -5.2401    0.4024    0.0000 C   0  0
   -5.3628    1.5389    0.0000 C   0  0
   -3.7427    1.8095    0.0000 C   0  0
   -3.9987    2.5938    0.0000 N   0  0
   -3.4475    3.2077    0.0000 C   0  0
   -2.6403    3.0373    0.0000 N   0  0
   -2.3842    2.2531    0.0000 C   0  0
   -1.5762    2.0843    0.0000 N   0  0
   -2.9354    1.6391    0.0000 C   0  0
   -1.2094    2.4940    0.0000 H   0  0
   -1.4046    1.5617    0.0000 H   0  0
  1  2  1  0
  2  3  1  0
  3  4  1  0
  4  5  2  0
  5  6  1  0
  6  7  2  0
  7  8  1  0
  8  9  2  0
  9 10  1  0
  9 14  1  0
 10 11  2  0
 11 12  1  0
 12  7  1  0
 12 13  2  0
 13  4  1  0
 14 15  2  0
 15 16  1  0
 16 17  1  0
 16 20  1  0
 17 18  1  0
 17 19  1  0
 20 21  2  0
 21 22  1  0
 22 23  2  0
 23 24  1  0
 24 25  1  0
 24 26  2  0
 25 27  1  0
 25 28  1  0
 26 14  1  0
 26 20  1  0
M  END
> <CMPD_CHEMBLID>
CHEMBL1785021

> <STANDARD_TYPE>
Ki

> <RELATION>
=

> <STANDARD_VALUE>
1600

> <STANDARD_UNITS>
nM

> <Molecular_Weight>
347.41364

$$$$

  SciTegic11272012012D

 28 31  0  0  0  0            999 V2000
   -2.2201   -5.3606    0.0000 F   0  0
   -1.7784   -4.8702    0.0000 C   0  0
   -0.9714   -5.0419    0.0000 C   0  0
   -0.4193   -4.4289    0.0000 C   0  0
   -0.6741   -3.6442    0.0000 C   0  0
   -1.4810   -3.4726    0.0000 C   0  0
   -2.0332   -4.0855    0.0000 C   0  0
   -0.1229   -3.0297    0.0000 C   0  0
    0.5229   -3.1659    0.0000 Cl  0  0
   -0.3789   -2.2450    0.0000 C   0  0
    0.1713   -1.6316    0.0000 N   0  0
    0.9918   -1.7178    0.0000 N   0  0
    1.3273   -0.9641    0.0000 C   0  0
    0.7144   -0.4125    0.0000 C   0  0
    0.7144    0.4125    0.0000 C   0  0
    1.4285    0.8267    0.0000 N   0  0
    1.4273    1.6521    0.0000 C   0  0
    2.1413    2.0663    0.0000 C   0  0
    2.1413    2.8914    0.0000 C   0  0
    2.8558    3.3039    0.0000 C   0  0
    3.5703    2.8914    0.0000 N   0  0
    3.5703    2.0664    0.0000 C   0  0
    2.8559    1.6539    0.0000 C   0  0
    0.0000    0.8250    0.0000 N   0  0
   -0.7144    0.4125    0.0000 C   0  0
   -0.7144   -0.4125    0.0000 N   0  0
    0.0000   -0.8250    0.0000 C   0  0
    1.9052    0.5525    0.0000 H   0  0
  1  2  1  0
  2  3  2  0
  3  4  1  0
  4  5  2  0
  5  6  1  0
  5  8  1  0
  6  7  2  0
  7  2  1  0
  8  9  1  0
  8 10  1  0
 10 11  1  0
 11 12  1  0
 12 13  2  0
 13 14  1  0
 14 15  2  0
 15 16  1  0
 15 24  1  0
 16 17  1  0
 16 28  1  0
 17 18  1  0
 18 19  2  0
 19 20  1  0
 20 21  2  0
 21 22  1  0
 22 23  2  0
 23 18  1  0
 24 25  2  0
 25 26  1  0
 26 27  2  0
 27 11  1  0
 27 14  1  0
M  END
> <CMPD_CHEMBLID>
CHEMBL1775047

> <STANDARD_TYPE>
Ki

> <RELATION>
=

> <STANDARD_VALUE>
1600

> <STANDARD_UNITS>
nM

> <Molecular_Weight>
382.82194

$$$$

  SciTegic11272012012D

 21 23  0  0  0  0            999 V2000
    1.2861   -0.7425    0.0000 F   0  0
    0.7145   -0.4125    0.0000 C   0  0
    0.7145    0.4125    0.0000 C   0  0
    0.0000    0.8250    0.0000 C   0  0
   -0.7145    0.4125    0.0000 C   0  0
   -0.7145   -0.4125    0.0000 C   0  0
    0.0000   -0.8250    0.0000 C   0  0
   -1.4293    0.8252    0.0000 C   0  0
   -1.5065    1.6396    0.0000 C   0  0
   -2.3137    1.8098    0.0000 N   0  0
   -2.7251    1.0947    0.0000 C   0  0
   -3.5443    1.0055    0.0000 N   0  0
   -3.8778    0.2504    0.0000 C   0  0
   -3.4881   -0.2822    0.0000 O   0  0
   -4.6984    0.1612    0.0000 C   0  0
   -5.0978   -0.5527    0.0000 C   0  0
   -5.9051   -0.3825    0.0000 C   0  0
   -5.9927    0.4379    0.0000 C   0  0
   -5.2395    0.7746    0.0000 S   0  0
   -2.1721    0.4825    0.0000 S   0  0
   -3.8691    1.4494    0.0000 H   0  0
  1  2  1  0
  2  3  2  0
  3  4  1  0
  4  5  2  0
  5  6  1  0
  5  8  1  0
  6  7  2  0
  7  2  1  0
  8  9  2  0
  9 10  1  0
 10 11  2  0
 11 12  1  0
 11 20  1  0
 12 13  1  0
 12 21  1  0
 13 14  2  0
 13 15  1  0
 15 16  2  0
 16 17  1  0
 17 18  2  0
 18 19  1  0
 19 15  1  0
 20  8  1  0
M  END
> <CMPD_CHEMBLID>
CHEMBL476514

> <STANDARD_TYPE>
Ki

> <RELATION>
=

> <STANDARD_VALUE>
1646

> <STANDARD_UNITS>
nM

> <Molecular_Weight>
304.36246

$$$$

  SciTegic11272012012D

 28 31  0  0  0  0            999 V2000
    2.8524    1.4900    0.0000 C   0  0
    2.8546    0.8300    0.0000 C   0  0
    3.5706    0.4200    0.0000 C   0  0
    3.5734   -0.4050    0.0000 C   0  0
    2.8604   -0.8200    0.0000 C   0  0
    2.1444   -0.4100    0.0000 C   0  0
    1.4302   -0.8237    0.0000 N   0  0
    0.7144   -0.4125    0.0000 C   0  0
    0.7144    0.4125    0.0000 N   0  0
    0.0000    0.8250    0.0000 C   0  0
   -0.7144    0.4125    0.0000 N   0  0
   -0.7144   -0.4125    0.0000 C   0  0
   -1.3273   -0.9641    0.0000 N   0  0
   -0.9918   -1.7178    0.0000 N   0  0
   -0.1713   -1.6316    0.0000 C   0  0
    0.3789   -2.2450    0.0000 N   0  0
    0.1229   -3.0297    0.0000 C   0  0
    0.6729   -3.6447    0.0000 C   0  0
    0.4154   -4.4284    0.0000 C   0  0
   -0.3921   -4.5973    0.0000 C   0  0
   -0.9421   -3.9824    0.0000 C   0  0
   -1.5882   -4.1175    0.0000 Cl  0  0
   -0.6846   -3.1986    0.0000 C   0  0
    0.0000   -0.8250    0.0000 C   0  0
    2.1416    0.4150    0.0000 C   0  0
    0.9171   -2.1315    0.0000 H   0  0
    1.1908    0.6875    0.0000 H   0  0
    1.4311   -1.3737    0.0000 H   0  0
  1  2  1  0
  2  3  2  0
  3  4  1  0
  4  5  2  0
  5  6  1  0
  6  7  1  0
  6 25  2  0
  7  8  1  0
  7 28  1  0
  8  9  1  0
  9 10  1  0
  9 27  1  0
 10 11  2  0
 11 12  1  0
 12 13  2  0
 13 14  1  0
 14 15  2  0
 15 16  1  0
 15 24  1  0
 16 17  1  0
 16 26  1  0
 17 18  2  0
 18 19  1  0
 19 20  2  0
 20 21  1  0
 21 22  1  0
 21 23  2  0
 23 17  1  0
 24  8  2  0
 24 12  1  0
 25  2  1  0
M  END
> <CMPD_CHEMBLID>
CHEMBL120069

> <STANDARD_TYPE>
IC50

> <RELATION>
=

> <STANDARD_VALUE>
1650

> <STANDARD_UNITS>
nM

> <Molecular_Weight>
350.8049

$$$$

  SciTegic11272012012D

 46 47  0  0  0  0            999 V2000
    1.5680   -3.2207    0.0000 C   0  0
    2.1401   -2.8917    0.0000 N   0  0
    2.1413   -2.0663    0.0000 C   0  0
    1.4273   -1.6521    0.0000 C   0  0
    1.4285   -0.8267    0.0000 C   0  0
    0.7144   -0.4125    0.0000 C   0  0
    0.7144    0.4125    0.0000 C   0  0
    0.0000    0.8250    0.0000 C   0  0
   -0.7144    0.4125    0.0000 C   0  0
   -0.7144   -0.4125    0.0000 C   0  0
    0.0000   -0.8250    0.0000 C   0  0
    2.8541   -3.3059    0.0000 C   0  0
    3.4263   -2.9769    0.0000 O   0  0
    2.8530   -4.1314    0.0000 C   0  0
    2.1382   -4.5443    0.0000 C   0  0
    2.1380   -5.3698    0.0000 C   0  0
    1.4233   -5.7827    0.0000 C   0  0
    0.8517   -5.4527    0.0000 O   0  0
    1.4230   -6.6081    0.0000 O   0  0
    3.5670   -4.5456    0.0000 N   0  0
    3.5657   -5.3710    0.0000 C   0  0
    2.9936   -5.7000    0.0000 O   0  0
    4.2797   -5.7852    0.0000 C   0  0
    4.2786   -6.6106    0.0000 C   0  0
    3.5634   -7.0228    0.0000 C   0  0
    3.5610   -7.8477    0.0000 C   0  0
    2.8454   -8.2583    0.0000 C   0  0
    2.1321   -7.8437    0.0000 C   0  0
    2.1345   -7.0187    0.0000 C   0  0
    2.8501   -6.6083    0.0000 C   0  0
    1.4161   -8.2544    0.0000 C   0  0
    0.8456   -7.9227    0.0000 F   0  0
    1.4181   -7.5945    0.0000 F   0  0
    1.4133   -9.0799    0.0000 P   0  0
    1.9838   -9.4116    0.0000 O   0  0
    0.6973   -9.4906    0.0000 O   0  0
    2.1439   -8.6624    0.0000 O   0  0
    4.9962   -5.3752    0.0000 N   0  0
    5.7097   -5.7902    0.0000 C   0  0
    6.2825   -5.4623    0.0000 O   0  0
    5.7074   -6.4501    0.0000 C   0  0
    4.9981   -4.8252    0.0000 H   0  0
    2.6191   -8.9393    0.0000 H   0  0
    0.6954  -10.0406    0.0000 H   0  0
    4.0437   -4.2714    0.0000 H   0  0
    0.9468   -6.8833    0.0000 H   0  0
  1  2  1  0
  2  3  1  0
  2 12  1  0
  3  4  1  0
  4  5  1  0
  5  6  1  0
  6  7  1  0
  7  8  1  0
  8  9  1  0
  9 10  1  0
 10 11  1  0
 11  6  1  0
 12 13  2  0
 12 14  1  0
 14 15  1  0
 14 20  1  0
 15 16  1  0
 16 17  1  0
 17 18  2  0
 17 19  1  0
 19 46  1  0
 20 21  1  0
 20 45  1  0
 21 22  2  0
 21 23  1  0
 23 24  1  0
 23 38  1  0
 24 25  1  0
 25 26  2  0
 26 27  1  0
 27 28  2  0
 28 29  1  0
 28 31  1  0
 29 30  2  0
 30 25  1  0
 31 32  1  0
 31 33  1  0
 31 34  1  0
 34 35  2  0
 34 36  1  0
 34 37  1  0
 36 44  1  0
 37 43  1  0
 38 39  1  0
 38 42  1  0
 39 40  2  0
 39 41  1  0
M  END
> <CMPD_CHEMBLID>
CHEMBL58478

> <STANDARD_TYPE>
IC50

> <RELATION>
=

> <STANDARD_VALUE>
1700

> <STANDARD_UNITS>
nM

> <Molecular_Weight>
603.59237

$$$$

  SciTegic11272012012D

 23 25  0  0  0  0            999 V2000
   -0.1742   -2.8725    0.0000 C   0  0
   -0.3790   -2.2450    0.0000 C   0  0
   -1.0247   -2.1088    0.0000 C   0  0
    0.1713   -1.6316    0.0000 N   0  0
    0.9918   -1.7179    0.0000 N   0  0
    1.3273   -0.9642    0.0000 C   0  0
    2.1348   -0.7925    0.0000 C   0  0
    2.7291   -1.3607    0.0000 C   0  0
    3.5209   -1.1288    0.0000 C   0  0
    3.7159   -0.3272    0.0000 C   0  0
    4.5077   -0.0936    0.0000 O   0  0
    3.1193    0.2426    0.0000 C   0  0
    2.3275    0.0107    0.0000 C   0  0
    0.7145   -0.4125    0.0000 C   0  0
    0.7145    0.4125    0.0000 C   0  0
    1.4285    0.8267    0.0000 N   0  0
    0.0000    0.8250    0.0000 N   0  0
   -0.7145    0.4125    0.0000 C   0  0
   -0.7145   -0.4125    0.0000 N   0  0
    0.0000   -0.8250    0.0000 C   0  0
    1.4277    1.3767    0.0000 H   0  0
    1.9053    0.5525    0.0000 H   0  0
    4.6370    0.4410    0.0000 H   0  0
  1  2  1  0
  2  3  1  0
  2  4  1  0
  4  5  1  0
  5  6  2  0
  6  7  1  0
  6 14  1  0
  7  8  2  0
  8  9  1  0
  9 10  2  0
 10 11  1  0
 10 12  1  0
 11 23  1  0
 12 13  2  0
 13  7  1  0
 14 15  2  0
 15 16  1  0
 15 17  1  0
 16 21  1  0
 16 22  1  0
 17 18  2  0
 18 19  1  0
 19 20  2  0
 20  4  1  0
 20 14  1  0
M  END
> <CMPD_CHEMBLID>
CHEMBL1241241

> <STANDARD_TYPE>
IC50

> <RELATION>
=

> <STANDARD_VALUE>
1700

> <STANDARD_UNITS>
nM

> <Molecular_Weight>
269.3018

$$$$

  SciTegic11272012012D

 23 25  0  0  0  0            999 V2000
   -2.7166   -1.7050    0.0000 C   0  0
   -2.5614   -2.3465    0.0000 O   0  0
   -1.7697   -2.5801    0.0000 C   0  0
   -1.5746   -3.3817    0.0000 C   0  0
   -0.7828   -3.6136    0.0000 C   0  0
   -0.1861   -3.0438    0.0000 C   0  0
   -0.3810   -2.2450    0.0000 C   0  0
   -1.1730   -2.0103    0.0000 C   0  0
    0.1713   -1.6316    0.0000 C   0  0
    0.9918   -1.7179    0.0000 N   0  0
    1.3273   -0.9642    0.0000 N   0  0
    2.1337   -0.7943    0.0000 C   0  0
    2.5748   -1.2854    0.0000 C   0  0
    2.3387   -0.1669    0.0000 C   0  0
    0.7145   -0.4125    0.0000 C   0  0
    0.7145    0.4125    0.0000 N   0  0
    0.0000    0.8250    0.0000 C   0  0
   -0.7145    0.4125    0.0000 N   0  0
   -0.7145   -0.4125    0.0000 C   0  0
   -1.4302   -0.8238    0.0000 N   0  0
    0.0000   -0.8250    0.0000 C   0  0
   -1.9062   -0.5481    0.0000 H   0  0
   -1.4312   -1.3738    0.0000 H   0  0
  1  2  1  0
  2  3  1  0
  3  4  2  0
  4  5  1  0
  5  6  2  0
  6  7  1  0
  7  8  2  0
  7  9  1  0
  8  3  1  0
  9 10  2  0
 10 11  1  0
 11 12  1  0
 11 15  1  0
 12 13  1  0
 12 14  1  0
 15 16  2  0
 16 17  1  0
 17 18  2  0
 18 19  1  0
 19 20  1  0
 19 21  2  0
 20 22  1  0
 20 23  1  0
 21  9  1  0
 21 15  1  0
M  END
> <CMPD_CHEMBLID>
CHEMBL1242029

> <STANDARD_TYPE>
IC50

> <RELATION>
=

> <STANDARD_VALUE>
1700

> <STANDARD_UNITS>
nM

> <Molecular_Weight>
283.32838

$$$$

  SciTegic11272012012D

 39 43  0  0  0  0            999 V2000
    2.4888   -3.9883    0.0000 O   0  0
    2.1557   -3.2330    0.0000 N   0  0
    2.6430   -2.5666    0.0000 C   0  0
    3.2991   -2.6378    0.0000 O   0  0
    2.3105   -1.8126    0.0000 C   0  0
    2.7242   -1.0988    0.0000 C   0  0
    2.1731   -0.4848    0.0000 C   0  0
    1.4293   -0.8252    0.0000 C   0  0
    1.5039   -1.6398    0.0000 S   0  0
    0.7144   -0.4125    0.0000 C   0  0
    0.7144    0.4125    0.0000 C   0  0
    0.0000    0.8250    0.0000 C   0  0
   -0.7144    0.4125    0.0000 C   0  0
   -1.4290    0.8250    0.0000 N   0  0
   -2.1434    0.4125    0.0000 C   0  0
   -2.1434   -0.4125    0.0000 N   0  0
   -1.4290   -0.8250    0.0000 C   0  0
   -1.4306   -1.6504    0.0000 N   0  0
   -2.1461   -2.0622    0.0000 C   0  0
   -2.1490   -2.8872    0.0000 C   0  0
   -2.8649   -3.2972    0.0000 C   0  0
   -3.5779   -2.8823    0.0000 C   0  0
   -4.2934   -3.2940    0.0000 O   0  0
   -4.2950   -4.1194    0.0000 C   0  0
   -5.0104   -4.5312    0.0000 C   0  0
   -5.0134   -5.3562    0.0000 C   0  0
   -5.7292   -5.7662    0.0000 C   0  0
   -6.4423   -5.3513    0.0000 C   0  0
   -6.4395   -4.5263    0.0000 C   0  0
   -7.0099   -4.1943    0.0000 F   0  0
   -5.7236   -4.1163    0.0000 C   0  0
   -3.5751   -2.0573    0.0000 C   0  0
   -4.1455   -1.7253    0.0000 Cl  0  0
   -2.8592   -1.6472    0.0000 C   0  0
   -0.7144   -0.4125    0.0000 C   0  0
    0.0000   -0.8250    0.0000 C   0  0
   -0.9548   -1.9263    0.0000 H   0  0
    1.6090   -3.1737    0.0000 H   0  0
    2.1641   -4.4322    0.0000 H   0  0
  1  2  1  0
  1 39  1  0
  2  3  1  0
  2 38  1  0
  3  4  2  0
  3  5  1  0
  5  6  2  0
  6  7  1  0
  7  8  2  0
  8  9  1  0
  8 10  1  0
  9  5  1  0
 10 11  2  0
 11 12  1  0
 12 13  2  0
 13 14  1  0
 14 15  2  0
 15 16  1  0
 16 17  2  0
 17 18  1  0
 17 35  1  0
 18 19  1  0
 18 37  1  0
 19 20  2  0
 20 21  1  0
 21 22  2  0
 22 23  1  0
 22 32  1  0
 23 24  1  0
 24 25  1  0
 25 26  2  0
 26 27  1  0
 27 28  2  0
 28 29  1  0
 29 30  1  0
 29 31  2  0
 31 25  1  0
 32 33  1  0
 32 34  2  0
 34 19  1  0
 35 13  1  0
 35 36  2  0
 36 10  1  0
M  END
> <CMPD_CHEMBLID>
CHEMBL1630118

> <STANDARD_TYPE>
IC50

> <RELATION>
=

> <STANDARD_VALUE>
1700

> <STANDARD_UNITS>
nM

> <Molecular_Weight>
520.96252

$$$$

  SciTegic11272012012D

 39 43  0  0  0  0            999 V2000
    4.8485   -1.6017    0.0000 O   0  0
    4.0272   -1.6849    0.0000 N   0  0
    3.5441   -1.0156    0.0000 C   0  0
    3.8145   -0.4136    0.0000 O   0  0
    2.7242   -1.0988    0.0000 C   0  0
    2.1731   -0.4848    0.0000 O   0  0
    1.4293   -0.8252    0.0000 C   0  0
    1.5039   -1.6398    0.0000 C   0  0
    2.3106   -1.8126    0.0000 C   0  0
    0.7145   -0.4125    0.0000 C   0  0
    0.7145    0.4125    0.0000 C   0  0
    0.0000    0.8250    0.0000 C   0  0
   -0.7145    0.4125    0.0000 C   0  0
   -1.4290    0.8250    0.0000 N   0  0
   -2.1434    0.4125    0.0000 C   0  0
   -2.1434   -0.4125    0.0000 N   0  0
   -1.4290   -0.8250    0.0000 C   0  0
   -1.4306   -1.6505    0.0000 N   0  0
   -2.1461   -2.0622    0.0000 C   0  0
   -2.1490   -2.8872    0.0000 C   0  0
   -2.8649   -3.2972    0.0000 C   0  0
   -3.5780   -2.8823    0.0000 C   0  0
   -4.2934   -3.2940    0.0000 O   0  0
   -4.2951   -4.1195    0.0000 C   0  0
   -5.0105   -4.5312    0.0000 C   0  0
   -5.0134   -5.3562    0.0000 C   0  0
   -5.7293   -5.7663    0.0000 C   0  0
   -6.4423   -5.3514    0.0000 C   0  0
   -6.4395   -4.5263    0.0000 C   0  0
   -7.0100   -4.1944    0.0000 F   0  0
   -5.7237   -4.1163    0.0000 C   0  0
   -3.5751   -2.0573    0.0000 C   0  0
   -4.1456   -1.7253    0.0000 Cl  0  0
   -2.8592   -1.6473    0.0000 C   0  0
   -0.7145   -0.4125    0.0000 C   0  0
    0.0000   -0.8250    0.0000 C   0  0
   -0.9548   -1.9263    0.0000 H   0  0
    3.8019   -2.1867    0.0000 H   0  0
    5.1704   -2.0476    0.0000 H   0  0
  1  2  1  0
  1 39  1  0
  2  3  1  0
  2 38  1  0
  3  4  2  0
  3  5  1  0
  5  6  1  0
  6  7  1  0
  7  8  2  0
  7 10  1  0
  8  9  1  0
  9  5  2  0
 10 11  2  0
 11 12  1  0
 12 13  2  0
 13 14  1  0
 14 15  2  0
 15 16  1  0
 16 17  2  0
 17 18  1  0
 17 35  1  0
 18 19  1  0
 18 37  1  0
 19 20  2  0
 20 21  1  0
 21 22  2  0
 22 23  1  0
 22 32  1  0
 23 24  1  0
 24 25  1  0
 25 26  2  0
 26 27  1  0
 27 28  2  0
 28 29  1  0
 29 30  1  0
 29 31  2  0
 31 25  1  0
 32 33  1  0
 32 34  2  0
 34 19  1  0
 35 13  1  0
 35 36  2  0
 36 10  1  0
M  END
> <CMPD_CHEMBLID>
CHEMBL1630117

> <STANDARD_TYPE>
IC50

> <RELATION>
=

> <STANDARD_VALUE>
1700

> <STANDARD_UNITS>
nM

> <Molecular_Weight>
504.89692

$$$$

  SciTegic11272012012D

 31 34  0  0  0  0            999 V2000
    1.2861   -0.7425    0.0000 C   0  0
    0.7144   -0.4125    0.0000 N   0  0
    0.7144    0.4125    0.0000 C   0  0
    1.2861    0.7425    0.0000 O   0  0
    0.0000    0.8250    0.0000 C   0  0
   -0.0017    1.6504    0.0000 C   0  0
   -0.7171    2.0622    0.0000 C   0  0
   -0.7958    2.8763    0.0000 C   0  0
   -1.6034    3.0451    0.0000 C   0  0
   -2.0134    2.3292    0.0000 C   0  0
   -2.8324    2.2385    0.0000 C   0  0
   -3.1645    1.4827    0.0000 C   0  0
   -3.9849    1.3919    0.0000 C   0  0
   -4.3756    1.9238    0.0000 O   0  0
   -4.3170    0.6362    0.0000 N   0  0
   -5.1374    0.5453    0.0000 C   0  0
   -5.4694   -0.2104    0.0000 C   0  0
   -6.2893   -0.3024    0.0000 C   0  0
   -6.6196   -1.0584    0.0000 C   0  0
   -6.1300   -1.7224    0.0000 N   0  0
   -5.3101   -1.6305    0.0000 C   0  0
   -4.9799   -0.8745    0.0000 C   0  0
   -1.4593    1.7180    0.0000 S   0  0
   -0.7144    0.4125    0.0000 O   0  0
   -0.7144   -0.4125    0.0000 C   0  0
   -1.4290   -0.8250    0.0000 C   0  0
   -1.4290   -1.6500    0.0000 C   0  0
   -0.7144   -2.0625    0.0000 C   0  0
    0.0000   -1.6500    0.0000 C   0  0
    0.0000   -0.8250    0.0000 C   0  0
   -3.9913    0.1929    0.0000 H   0  0
  1  2  1  0
  2  3  1  0
  3  4  2  0
  3  5  1  0
  5  6  2  0
  5 24  1  0
  6  7  1  0
  7  8  2  0
  8  9  1  0
  9 10  2  0
 10 11  1  0
 10 23  1  0
 11 12  2  0
 12 13  1  0
 13 14  2  0
 13 15  1  0
 15 16  1  0
 15 31  1  0
 16 17  1  0
 17 18  2  0
 18 19  1  0
 19 20  2  0
 20 21  1  0
 21 22  2  0
 22 17  1  0
 23  7  1  0
 24 25  1  0
 25 26  2  0
 26 27  1  0
 27 28  2  0
 28 29  1  0
 29 30  2  0
 30  2  1  0
 30 25  1  0
M  END
> <CMPD_CHEMBLID>
CHEMBL461777

> <STANDARD_TYPE>
IC50

> <RELATION>
=

> <STANDARD_VALUE>
1760

> <STANDARD_UNITS>
nM

> <Molecular_Weight>
417.48026

$$$$

  SciTegic11272012012D

 20 22  0  0  0  0            999 V2000
    1.4285   -0.8267    0.0000 N   0  0
    0.7144   -0.4125    0.0000 C   0  0
    0.7144    0.4125    0.0000 C   0  0
    0.0000    0.8250    0.0000 C   0  0
   -0.7144    0.4125    0.0000 C   0  0
   -0.7144   -0.4125    0.0000 C   0  0
    0.0000   -0.8250    0.0000 C   0  0
    1.4273   -1.6521    0.0000 C   0  0
    2.1403   -2.0672    0.0000 N   0  0
    2.1375   -2.8922    0.0000 C   0  0
    1.4216   -3.3022    0.0000 C   0  0
    0.7086   -2.8872    0.0000 C   0  0
    0.7114   -2.0622    0.0000 N   0  0
   -0.0077   -3.2975    0.0000 C   0  0
   -0.0119   -4.1224    0.0000 C   0  0
   -0.7284   -4.5314    0.0000 C   0  0
   -1.4408   -4.1152    0.0000 C   0  0
   -1.4366   -3.2902    0.0000 N   0  0
   -0.7201   -2.8814    0.0000 C   0  0
    1.9053   -0.5525    0.0000 H   0  0
  1  2  1  0
  1  8  1  0
  1 20  1  0
  2  3  2  0
  3  4  1  0
  4  5  2  0
  5  6  1  0
  6  7  2  0
  7  2  1  0
  8  9  2  0
  9 10  1  0
 10 11  2  0
 11 12  1  0
 12 13  2  0
 12 14  1  0
 13  8  1  0
 14 15  2  0
 15 16  1  0
 16 17  2  0
 17 18  1  0
 18 19  2  0
 19 14  1  0
M  END
> <CMPD_CHEMBLID>
CHEMBL57690

> <STANDARD_TYPE>
IC50

> <RELATION>
=

> <STANDARD_VALUE>
1800

> <STANDARD_UNITS>
nM

> <Molecular_Weight>
248.28258

$$$$

  SciTegic11272012012D

 35 39  0  0  0  0            999 V2000
    2.0013   -0.4930    0.0000 C   0  0
    1.4302   -0.8237    0.0000 O   0  0
    0.7144   -0.4125    0.0000 C   0  0
    0.7144    0.4125    0.0000 C   0  0
    0.0000    0.8250    0.0000 C   0  0
    0.0000    1.6500    0.0000 N   0  0
   -0.7145    2.0625    0.0000 C   0  0
   -1.4290    1.6500    0.0000 C   0  0
   -2.1438    2.0627    0.0000 C   0  0
   -2.7154    2.3927    0.0000 N   0  0
   -1.4290    0.8250    0.0000 C   0  0
   -2.1447    0.4137    0.0000 N   0  0
   -2.8590    0.8275    0.0000 C   0  0
   -3.2255    1.5181    0.0000 C   0  0
   -3.6404    0.8051    0.0000 C   0  0
   -4.3501    0.3835    0.0000 C   0  0
   -4.6400   -0.3768    0.0000 C   0  0
   -5.4543   -0.5085    0.0000 C   0  0
   -5.9757    0.1309    0.0000 C   0  0
   -5.6826    0.9021    0.0000 C   0  0
   -4.8682    1.0338    0.0000 C   0  0
   -0.7144    0.4125    0.0000 C   0  0
   -0.7144   -0.4125    0.0000 C   0  0
    0.0000   -0.8250    0.0000 C   0  0
   -0.0017   -1.6504    0.0000 O   0  0
   -0.7171   -2.0622    0.0000 C   0  0
   -0.7188   -2.8876    0.0000 C   0  0
   -1.4343   -3.2993    0.0000 C   0  0
   -1.4360   -4.1248    0.0000 N   0  0
   -2.1504   -4.5373    0.0000 C   0  0
   -2.1504   -5.3623    0.0000 C   0  0
   -1.4360   -5.7748    0.0000 O   0  0
   -0.7215   -5.3623    0.0000 C   0  0
   -0.7215   -4.5373    0.0000 C   0  0
   -2.1456   -0.1363    0.0000 H   0  0
  1  2  1  0
  2  3  1  0
  3  4  2  0
  4  5  1  0
  5  6  2  0
  6  7  1  0
  7  8  2  0
  8  9  1  0
  8 11  1  0
  9 10  3  0
 11 12  1  0
 11 22  2  0
 12 13  1  0
 12 35  1  0
 13 14  1  0
 14 15  1  0
 15 13  1  0
 15 16  1  0
 16 17  2  0
 17 18  1  0
 18 19  2  0
 19 20  1  0
 20 21  2  0
 21 16  1  0
 22  5  1  0
 22 23  1  0
 23 24  2  0
 24  3  1  0
 24 25  1  0
 25 26  1  0
 26 27  1  0
 27 28  1  0
 28 29  1  0
 29 30  1  0
 30 31  1  0
 31 32  1  0
 32 33  1  0
 33 34  1  0
 34 29  1  0
M  END
> <CMPD_CHEMBLID>
CHEMBL248221

> <STANDARD_TYPE>
Ki

> <RELATION>
=

> <STANDARD_VALUE>
1800

> <STANDARD_UNITS>
nM

> <Molecular_Weight>
458.5521

$$$$

  SciTegic11272012012D

 35 39  0  0  0  0            999 V2000
    2.0013   -0.4930    0.0000 C   0  0
    1.4302   -0.8237    0.0000 O   0  0
    0.7144   -0.4125    0.0000 C   0  0
    0.7144    0.4125    0.0000 C   0  0
    0.0000    0.8250    0.0000 C   0  0
    0.0000    1.6500    0.0000 N   0  0
   -0.7145    2.0625    0.0000 C   0  0
   -1.4290    1.6500    0.0000 C   0  0
   -2.1438    2.0627    0.0000 C   0  0
   -2.7154    2.3927    0.0000 N   0  0
   -1.4290    0.8250    0.0000 C   0  0
   -2.1447    0.4137    0.0000 N   0  0
   -2.8590    0.8275    0.0000 C   0  0
   -3.2255    1.5181    0.0000 C   0  0
   -3.6404    0.8051    0.0000 C   0  0
   -4.3501    0.3835    0.0000 C   0  0
   -4.6400   -0.3768    0.0000 C   0  0
   -5.4543   -0.5085    0.0000 C   0  0
   -5.9757    0.1309    0.0000 C   0  0
   -5.6826    0.9021    0.0000 C   0  0
   -4.8682    1.0338    0.0000 C   0  0
   -0.7144    0.4125    0.0000 C   0  0
   -0.7144   -0.4125    0.0000 C   0  0
    0.0000   -0.8250    0.0000 C   0  0
   -0.0017   -1.6504    0.0000 O   0  0
   -0.7171   -2.0622    0.0000 C   0  0
   -0.7188   -2.8876    0.0000 C   0  0
   -1.4343   -3.2993    0.0000 C   0  0
   -1.4360   -4.1248    0.0000 C   0  0
   -2.1504   -4.5373    0.0000 C   0  0
   -2.1504   -5.3623    0.0000 C   0  0
   -1.4360   -5.7748    0.0000 C   0  0
   -0.7215   -5.3623    0.0000 N   0  0
   -0.7215   -4.5373    0.0000 C   0  0
   -2.1456   -0.1363    0.0000 H   0  0
  1  2  1  0
  2  3  1  0
  3  4  2  0
  4  5  1  0
  5  6  2  0
  6  7  1  0
  7  8  2  0
  8  9  1  0
  8 11  1  0
  9 10  3  0
 11 12  1  0
 11 22  2  0
 12 13  1  0
 12 35  1  0
 13 14  1  0
 14 15  1  0
 15 13  1  0
 15 16  1  0
 16 17  2  0
 17 18  1  0
 18 19  2  0
 19 20  1  0
 20 21  2  0
 21 16  1  0
 22  5  1  0
 22 23  1  0
 23 24  2  0
 24  3  1  0
 24 25  1  0
 25 26  1  0
 26 27  1  0
 27 28  1  0
 28 29  1  0
 29 30  2  0
 30 31  1  0
 31 32  2  0
 32 33  1  0
 33 34  2  0
 34 29  1  0
M  END
> <CMPD_CHEMBLID>
CHEMBL248222

> <STANDARD_TYPE>
Ki

> <RELATION>
=

> <STANDARD_VALUE>
1800

> <STANDARD_UNITS>
nM

> <Molecular_Weight>
450.53164

$$$$

  SciTegic11272012012D

 24 26  0  0  0  0            999 V2000
   -0.1742   -2.8725    0.0000 C   0  0
   -0.3790   -2.2450    0.0000 C   0  0
   -1.0247   -2.1088    0.0000 C   0  0
    0.1713   -1.6316    0.0000 N   0  0
    0.9918   -1.7179    0.0000 N   0  0
    1.3273   -0.9642    0.0000 C   0  0
    2.1348   -0.7925    0.0000 C   0  0
    2.7291   -1.3607    0.0000 C   0  0
    3.5209   -1.1288    0.0000 C   0  0
    3.7159   -0.3272    0.0000 C   0  0
    3.1193    0.2426    0.0000 C   0  0
    3.3128    1.0450    0.0000 C   0  0
    2.7150    1.6142    0.0000 O   0  0
    2.3275    0.0107    0.0000 C   0  0
    0.7145   -0.4125    0.0000 C   0  0
    0.7145    0.4125    0.0000 C   0  0
    1.4285    0.8267    0.0000 N   0  0
    0.0000    0.8250    0.0000 N   0  0
   -0.7145    0.4125    0.0000 C   0  0
   -0.7145   -0.4125    0.0000 N   0  0
    0.0000   -0.8250    0.0000 C   0  0
    1.4277    1.3767    0.0000 H   0  0
    1.9053    0.5525    0.0000 H   0  0
    2.8439    2.1489    0.0000 H   0  0
  1  2  1  0
  2  3  1  0
  2  4  1  0
  4  5  1  0
  5  6  2  0
  6  7  1  0
  6 15  1  0
  7  8  2  0
  8  9  1  0
  9 10  2  0
 10 11  1  0
 11 12  1  0
 11 14  2  0
 12 13  1  0
 13 24  1  0
 14  7  1  0
 15 16  2  0
 16 17  1  0
 16 18  1  0
 17 22  1  0
 17 23  1  0
 18 19  2  0
 19 20  1  0
 20 21  2  0
 21  4  1  0
 21 15  1  0
M  END
> <CMPD_CHEMBLID>
CHEMBL1241582

> <STANDARD_TYPE>
IC50

> <RELATION>
=

> <STANDARD_VALUE>
1800

> <STANDARD_UNITS>
nM

> <Molecular_Weight>
283.32838

$$$$

  SciTegic11272012012D

 36 39  0  0  0  0            999 V2000
    5.0043    0.2515    0.0000 F   0  0
    5.0039   -0.4085    0.0000 C   0  0
    5.5754   -0.7387    0.0000 F   0  0
    5.5756   -0.0788    0.0000 F   0  0
    4.2891   -0.8212    0.0000 C   0  0
    3.5746   -0.4088    0.0000 C   0  0
    2.8601   -0.8212    0.0000 C   0  0
    2.1444   -0.4100    0.0000 C   0  0
    1.4301   -0.8237    0.0000 N   0  0
    0.7144   -0.4125    0.0000 C   0  0
    0.7144    0.4125    0.0000 N   0  0
    0.0000    0.8250    0.0000 C   0  0
   -0.7144    0.4125    0.0000 N   0  0
   -0.7144   -0.4125    0.0000 C   0  0
    0.0000   -0.8250    0.0000 C   0  0
   -0.1713   -1.6315    0.0000 C   0  0
   -0.9917   -1.7178    0.0000 N   0  0
   -1.3273   -0.9641    0.0000 N   0  0
   -2.1336   -0.7943    0.0000 C   0  0
   -2.6852   -1.4084    0.0000 C   0  0
   -2.4803   -2.0358    0.0000 Cl  0  0
   -3.4929   -1.2383    0.0000 C   0  0
   -4.0451   -1.8513    0.0000 C   0  0
   -4.8520   -1.6797    0.0000 C   0  0
   -5.1068   -0.8950    0.0000 C   0  0
   -5.7524   -0.7577    0.0000 Br  0  0
   -4.5547   -0.2820    0.0000 C   0  0
   -3.7478   -0.4536    0.0000 C   0  0
    2.8602   -1.6463    0.0000 C   0  0
    3.5747   -2.0587    0.0000 C   0  0
    4.2891   -1.6462    0.0000 C   0  0
    3.5747   -2.8842    0.0000 C   0  0
    3.0033   -3.2145    0.0000 F   0  0
    4.1464   -3.2140    0.0000 F   0  0
    3.5750   -3.5442    0.0000 F   0  0
    1.4311   -1.3737    0.0000 H   0  0
  1  2  1  0
  2  3  1  0
  2  4  1  0
  2  5  1  0
  5  6  2  0
  6  7  1  0
  7  8  1  0
  7 29  2  0
  8  9  1  0
  9 10  1  0
  9 36  1  0
 10 11  2  0
 11 12  1  0
 12 13  2  0
 13 14  1  0
 14 15  2  0
 15 10  1  0
 15 16  1  0
 16 17  2  0
 17 18  1  0
 18 14  1  0
 18 19  1  0
 19 20  1  0
 20 21  1  0
 20 22  1  0
 22 23  2  0
 23 24  1  0
 24 25  2  0
 25 26  1  0
 25 27  1  0
 27 28  2  0
 28 22  1  0
 29 30  1  0
 30 31  2  0
 30 32  1  0
 31  5  1  0
 32 33  1  0
 32 34  1  0
 32 35  1  0
M  END
> <CMPD_CHEMBLID>
CHEMBL2397816

> <STANDARD_TYPE>
Ki

> <RELATION>
=

> <STANDARD_VALUE>
1810

> <STANDARD_UNITS>
nM

> <Molecular_Weight>
578.73542

$$$$

  SciTegic11272012012D

 30 33  0  0  0  0            999 V2000
    1.4276   -1.4867    0.0000 C   0  0
    1.4285   -0.8267    0.0000 S   0  0
    0.7144   -0.4125    0.0000 C   0  0
    0.7144    0.4125    0.0000 N   0  0
    0.0000    0.8250    0.0000 C   0  0
    0.0017    1.6504    0.0000 N   0  0
    0.7171    2.0622    0.0000 C   0  0
    0.7188    2.8876    0.0000 C   0  0
    1.4333    3.3002    0.0000 C   0  0
    1.4333    4.1252    0.0000 C   0  0
    0.7188    4.5377    0.0000 C   0  0
    0.7188    5.1977    0.0000 F   0  0
    0.0043    4.1252    0.0000 C   0  0
    0.0043    3.3002    0.0000 C   0  0
   -0.7144    0.4125    0.0000 C   0  0
   -1.4986    0.6674    0.0000 C   0  0
   -1.9836    0.0000    0.0000 N   0  0
   -1.4986   -0.6674    0.0000 N   0  0
   -1.7547   -1.4507    0.0000 C   0  0
   -2.5623   -1.6213    0.0000 C   0  0
   -3.0032   -1.1301    0.0000 C   0  0
   -2.8189   -2.4059    0.0000 C   0  0
   -3.6259   -2.5776    0.0000 C   0  0
   -3.8807   -3.3623    0.0000 C   0  0
   -3.3285   -3.9752    0.0000 C   0  0
   -2.5216   -3.8036    0.0000 C   0  0
   -2.2668   -3.0189    0.0000 C   0  0
   -0.7144   -0.4125    0.0000 C   0  0
    0.0000   -0.8250    0.0000 N   0  0
   -0.4742    1.9263    0.0000 H   0  0
  1  2  1  0
  2  3  1  0
  3  4  2  0
  4  5  1  0
  5  6  1  0
  5 15  2  0
  6  7  1  0
  6 30  1  0
  7  8  1  0
  8  9  2  0
  9 10  1  0
 10 11  2  0
 11 12  1  0
 11 13  1  0
 13 14  2  0
 14  8  1  0
 15 16  1  0
 16 17  2  0
 17 18  1  0
 18 19  1  0
 18 28  1  0
 19 20  1  0
 20 21  1  0
 20 22  1  0
 22 23  2  0
 23 24  1  0
 24 25  2  0
 25 26  1  0
 26 27  2  0
 27 22  1  0
 28 15  1  0
 28 29  2  0
 29  3  1  0
M  END
> <CMPD_CHEMBLID>
CHEMBL1836676

> <STANDARD_TYPE>
Ki

> <RELATION>
=

> <STANDARD_VALUE>
1860

> <STANDARD_UNITS>
nM

> <Molecular_Weight>
407.50698

$$$$

  SciTegic11272012012D

 32 35  0  0  0  0            999 V2000
    4.8547   -2.9760    0.0000 C   0  0
    4.2832   -3.3060    0.0000 C   0  0
    4.2831   -4.1310    0.0000 C   0  0
    3.5687   -4.5435    0.0000 C   0  0
    2.8542   -4.1310    0.0000 C   0  0
    2.8542   -3.3060    0.0000 C   0  0
    2.1402   -2.8918    0.0000 N   0  0
    2.1413   -2.0663    0.0000 C   0  0
    2.7135   -1.7373    0.0000 O   0  0
    1.4273   -1.6521    0.0000 C   0  0
    1.4285   -0.8267    0.0000 O   0  0
    0.7144   -0.4125    0.0000 C   0  0
    0.7144    0.4125    0.0000 C   0  0
    0.0000    0.8250    0.0000 C   0  0
    0.0017    1.6504    0.0000 O   0  0
   -0.7144    0.4125    0.0000 C   0  0
   -1.4290    0.8250    0.0000 C   0  0
   -1.4290    1.4850    0.0000 O   0  0
   -2.1434    0.4125    0.0000 C   0  0
   -2.1434   -0.4125    0.0000 C   0  0
   -1.4290   -0.8250    0.0000 O   0  0
   -0.7144   -0.4125    0.0000 C   0  0
    0.0000   -0.8250    0.0000 C   0  0
   -2.8582   -0.8252    0.0000 C   0  0
   -3.5734   -0.4139    0.0000 C   0  0
   -4.2872   -0.8275    0.0000 C   0  0
   -4.2859   -1.6525    0.0000 C   0  0
   -3.5708   -2.0639    0.0000 C   0  0
   -2.8570   -1.6503    0.0000 C   0  0
    3.5687   -2.8935    0.0000 C   0  0
    0.4784    1.9248    0.0000 H   0  0
    1.6634   -3.1660    0.0000 H   0  0
  1  2  1  0
  2  3  2  0
  3  4  1  0
  4  5  2  0
  5  6  1  0
  6  7  1  0
  6 30  2  0
  7  8  1  0
  7 32  1  0
  8  9  2  0
  8 10  1  0
 10 11  1  0
 11 12  1  0
 12 13  2  0
 13 14  1  0
 14 15  1  0
 14 16  2  0
 15 31  1  0
 16 17  1  0
 17 18  2  0
 17 19  1  0
 19 20  2  0
 20 21  1  0
 20 24  1  0
 21 22  1  0
 22 16  1  0
 22 23  2  0
 23 12  1  0
 24 25  2  0
 25 26  1  0
 26 27  2  0
 27 28  1  0
 28 29  2  0
 29 24  1  0
 30  2  1  0
M  END
> <CMPD_CHEMBLID>
CHEMBL2408499

> <STANDARD_TYPE>
IC50

> <RELATION>
=

> <STANDARD_VALUE>
1880

> <STANDARD_UNITS>
nM

> <Molecular_Weight>
401.41136

$$$$

  SciTegic11272012012D

 25 27  0  0  0  0            999 V2000
   -0.1742   -2.8725    0.0000 C   0  0
   -0.3790   -2.2450    0.0000 C   0  0
   -1.0247   -2.1088    0.0000 C   0  0
    0.1713   -1.6316    0.0000 N   0  0
    0.9918   -1.7179    0.0000 N   0  0
    1.3274   -0.9642    0.0000 C   0  0
    2.1348   -0.7925    0.0000 C   0  0
    2.3276    0.0107    0.0000 C   0  0
    3.1193    0.2426    0.0000 C   0  0
    3.2754    0.8839    0.0000 F   0  0
    3.7160   -0.3272    0.0000 C   0  0
    4.5087   -0.0969    0.0000 O   0  0
    3.5209   -1.1289    0.0000 C   0  0
    2.7291   -1.3607    0.0000 C   0  0
    2.5729   -2.0019    0.0000 F   0  0
    0.7145   -0.4125    0.0000 C   0  0
    0.7145    0.4125    0.0000 C   0  0
    1.4285    0.8267    0.0000 N   0  0
    0.0000    0.8250    0.0000 N   0  0
   -0.7145    0.4125    0.0000 C   0  0
   -0.7145   -0.4125    0.0000 N   0  0
    0.0000   -0.8250    0.0000 C   0  0
    1.4277    1.3767    0.0000 H   0  0
    1.9053    0.5525    0.0000 H   0  0
    4.9059   -0.4772    0.0000 H   0  0
  1  2  1  0
  2  3  1  0
  2  4  1  0
  4  5  1  0
  5  6  2  0
  6  7  1  0
  6 16  1  0
  7  8  2  0
  8  9  1  0
  9 10  1  0
  9 11  2  0
 11 12  1  0
 11 13  1  0
 12 25  1  0
 13 14  2  0
 14  7  1  0
 14 15  1  0
 16 17  2  0
 17 18  1  0
 17 19  1  0
 18 23  1  0
 18 24  1  0
 19 20  2  0
 20 21  1  0
 21 22  2  0
 22  4  1  0
 22 16  1  0
M  END
> <CMPD_CHEMBLID>
CHEMBL1242028

> <STANDARD_TYPE>
IC50

> <RELATION>
=

> <STANDARD_VALUE>
1900

> <STANDARD_UNITS>
nM

> <Molecular_Weight>
305.28273

$$$$

  SciTegic11272012012D

 31 34  0  0  0  0            999 V2000
    1.2861   -0.7425    0.0000 C   0  0
    0.7144   -0.4125    0.0000 N   0  0
    0.7144    0.4125    0.0000 C   0  0
    1.2861    0.7425    0.0000 O   0  0
    0.0000    0.8250    0.0000 C   0  0
   -0.0017    1.6504    0.0000 C   0  0
   -0.7171    2.0622    0.0000 C   0  0
   -0.7958    2.8763    0.0000 C   0  0
   -1.6034    3.0451    0.0000 C   0  0
   -2.0134    2.3292    0.0000 C   0  0
   -2.8324    2.2385    0.0000 C   0  0
   -3.1645    1.4827    0.0000 C   0  0
   -3.9849    1.3919    0.0000 C   0  0
   -4.3756    1.9238    0.0000 O   0  0
   -4.3170    0.6362    0.0000 N   0  0
   -5.1374    0.5453    0.0000 C   0  0
   -5.4694   -0.2104    0.0000 C   0  0
   -6.2893   -0.3024    0.0000 C   0  0
   -6.6196   -1.0584    0.0000 C   0  0
   -6.1300   -1.7224    0.0000 C   0  0
   -5.3101   -1.6305    0.0000 N   0  0
   -4.9799   -0.8745    0.0000 C   0  0
   -1.4593    1.7180    0.0000 S   0  0
   -0.7144    0.4125    0.0000 O   0  0
   -0.7144   -0.4125    0.0000 C   0  0
   -1.4290   -0.8250    0.0000 C   0  0
   -1.4290   -1.6500    0.0000 C   0  0
   -0.7144   -2.0625    0.0000 C   0  0
    0.0000   -1.6500    0.0000 C   0  0
    0.0000   -0.8250    0.0000 C   0  0
   -3.9913    0.1929    0.0000 H   0  0
  1  2  1  0
  2  3  1  0
  3  4  2  0
  3  5  1  0
  5  6  2  0
  5 24  1  0
  6  7  1  0
  7  8  2  0
  8  9  1  0
  9 10  2  0
 10 11  1  0
 10 23  1  0
 11 12  2  0
 12 13  1  0
 13 14  2  0
 13 15  1  0
 15 16  1  0
 15 31  1  0
 16 17  1  0
 17 18  2  0
 18 19  1  0
 19 20  2  0
 20 21  1  0
 21 22  2  0
 22 17  1  0
 23  7  1  0
 24 25  1  0
 25 26  2  0
 26 27  1  0
 27 28  2  0
 28 29  1  0
 29 30  2  0
 30  2  1  0
 30 25  1  0
M  END
> <CMPD_CHEMBLID>
CHEMBL461776

> <STANDARD_TYPE>
IC50

> <RELATION>
=

> <STANDARD_VALUE>
1900

> <STANDARD_UNITS>
nM

> <Molecular_Weight>
417.48026

$$$$

  SciTegic11272012012D

 32 35  0  0  0  0            999 V2000
    2.0013   -0.4930    0.0000 C   0  0
    1.4302   -0.8237    0.0000 O   0  0
    0.7144   -0.4125    0.0000 C   0  0
    0.7144    0.4125    0.0000 C   0  0
    0.0000    0.8250    0.0000 C   0  0
   -0.7144    0.4125    0.0000 C   0  0
   -0.7144   -0.4125    0.0000 C   0  0
    0.0000   -0.8250    0.0000 C   0  0
   -0.0017   -1.6504    0.0000 C   0  0
   -0.5740   -1.9791    0.0000 O   0  0
    0.7121   -2.0651    0.0000 N   0  0
    0.7104   -2.8906    0.0000 C   0  0
    1.4231   -3.3060    0.0000 C   0  0
    1.4198   -4.1310    0.0000 C   0  0
    0.7036   -4.5406    0.0000 C   0  0
   -0.0092   -4.1252    0.0000 C   0  0
   -0.7265   -4.5335    0.0000 N   0  0
   -1.4391   -4.1169    0.0000 C   0  0
   -2.1568   -4.5239    0.0000 N   0  0
   -2.8681   -4.1060    0.0000 C   0  0
   -2.8619   -3.2811    0.0000 C   0  0
   -2.1443   -2.8740    0.0000 C   0  0
   -1.4330   -3.2919    0.0000 N   0  0
   -2.1381   -2.0486    0.0000 C   0  0
   -2.8487   -1.6295    0.0000 C   0  0
   -2.8412   -0.8045    0.0000 C   0  0
   -2.1230   -0.3986    0.0000 C   0  0
   -1.4123   -0.8176    0.0000 N   0  0
   -1.4199   -1.6425    0.0000 C   0  0
   -0.0058   -3.3002    0.0000 C   0  0
   -0.7297   -5.0835    0.0000 H   0  0
    1.1890   -1.7912    0.0000 H   0  0
  1  2  1  0
  2  3  1  0
  3  4  2  0
  4  5  1  0
  5  6  2  0
  6  7  1  0
  7  8  2  0
  8  3  1  0
  8  9  1  0
  9 10  2  0
  9 11  1  0
 11 12  1  0
 11 32  1  0
 12 13  2  0
 13 14  1  0
 14 15  2  0
 15 16  1  0
 16 17  1  0
 16 30  2  0
 17 18  1  0
 17 31  1  0
 18 19  2  0
 19 20  1  0
 20 21  2  0
 21 22  1  0
 22 23  2  0
 22 24  1  0
 23 18  1  0
 24 25  2  0
 25 26  1  0
 26 27  2  0
 27 28  1  0
 28 29  2  0
 29 24  1  0
 30 12  1  0
M  END
> <CMPD_CHEMBLID>
CHEMBL299707

> <STANDARD_TYPE>
IC50

> <RELATION>
=

> <STANDARD_VALUE>
1900

> <STANDARD_UNITS>
nM

> <Molecular_Weight>
397.42926

$$$$

  SciTegic11272012012D

 34 38  0  0  0  0            999 V2000
   -3.4078   -4.9278    0.0000 C   0  0
   -3.5627   -4.2862    0.0000 C   0  0
   -4.1959   -4.0998    0.0000 O   0  0
   -2.9646   -3.7174    0.0000 N   0  0
   -2.1727   -3.9505    0.0000 C   0  0
   -1.5745   -3.3817    0.0000 C   0  0
   -0.7828   -3.6135    0.0000 C   0  0
   -0.1861   -3.0438    0.0000 C   0  0
   -0.3810   -2.2449    0.0000 C   0  0
   -1.1730   -2.0103    0.0000 C   0  0
   -1.7696   -2.5800    0.0000 C   0  0
    0.1713   -1.6316    0.0000 C   0  0
    0.9918   -1.7178    0.0000 N   0  0
    1.3273   -0.9641    0.0000 C   0  0
    2.1347   -0.7924    0.0000 C   0  0
    2.3964   -0.0169    0.0000 C   0  0
    3.2206   -0.0387    0.0000 C   0  0
    3.7886    0.5597    0.0000 C   0  0
    4.5908    0.3670    0.0000 C   0  0
    4.8250   -0.4241    0.0000 C   0  0
    4.2570   -1.0224    0.0000 C   0  0
    3.4548   -0.8298    0.0000 C   0  0
    2.7753   -1.2968    0.0000 N   0  0
    0.7144   -0.4125    0.0000 C   0  0
    0.7144    0.4125    0.0000 C   0  0
    1.4285    0.8267    0.0000 N   0  0
    0.0000    0.8250    0.0000 N   0  0
   -0.7144    0.4125    0.0000 C   0  0
   -0.7144   -0.4125    0.0000 C   0  0
    0.0000   -0.8250    0.0000 N   0  0
    1.4277    1.3767    0.0000 H   0  0
    1.9053    0.5525    0.0000 H   0  0
    2.7575   -1.8466    0.0000 H   0  0
   -3.0937   -3.1827    0.0000 H   0  0
  1  2  1  0
  2  3  2  0
  2  4  1  0
  4  5  1  0
  4 34  1  0
  5  6  1  0
  6  7  1  0
  7  8  1  0
  8  9  1  0
  9 10  1  0
  9 12  1  0
 10 11  1  0
 11  6  1  0
 12 13  2  0
 13 14  1  0
 14 15  1  0
 14 24  2  0
 15 16  2  0
 16 17  1  0
 17 18  2  0
 18 19  1  0
 19 20  2  0
 20 21  1  0
 21 22  2  0
 22 17  1  0
 22 23  1  0
 23 15  1  0
 23 33  1  0
 24 25  1  0
 25 26  1  0
 25 27  2  0
 26 31  1  0
 26 32  1  0
 27 28  1  0
 28 29  2  0
 29 30  1  0
 30 12  1  0
 30 24  1  0
M  END
> <CMPD_CHEMBLID>
CHEMBL1762110

> <STANDARD_TYPE>
IC50

> <RELATION>
=

> <STANDARD_VALUE>
1960

> <STANDARD_UNITS>
nM

> <Molecular_Weight>
402.49214

$$$$

  SciTegic11272012012D

 26 29  0  0  0  0            999 V2000
    1.4302   -0.8237    0.0000 N   0  0
    2.1444   -0.4100    0.0000 C   0  0
    2.8604   -0.8200    0.0000 C   0  0
    3.5734   -0.4050    0.0000 C   0  0
    3.5706    0.4200    0.0000 C   0  0
    2.8546    0.8300    0.0000 C   0  0
    2.1416    0.4150    0.0000 C   0  0
    0.7144   -0.4125    0.0000 C   0  0
    0.7144    0.4125    0.0000 N   0  0
    0.0000    0.8250    0.0000 C   0  0
   -0.7144    0.4125    0.0000 N   0  0
   -0.7144   -0.4125    0.0000 C   0  0
   -1.3273   -0.9641    0.0000 N   0  0
   -0.9918   -1.7178    0.0000 N   0  0
   -0.1713   -1.6316    0.0000 C   0  0
    0.3789   -2.2450    0.0000 N   0  0
    0.1229   -3.0297    0.0000 C   0  0
    0.6729   -3.6447    0.0000 C   0  0
    0.4154   -4.4284    0.0000 C   0  0
   -0.3921   -4.5973    0.0000 C   0  0
   -0.9421   -3.9824    0.0000 C   0  0
   -0.6846   -3.1986    0.0000 C   0  0
    0.0000   -0.8250    0.0000 C   0  0
    0.9171   -2.1315    0.0000 H   0  0
   -1.1908    0.6875    0.0000 H   0  0
    1.4311   -1.3737    0.0000 H   0  0
  1  2  1  0
  1  8  1  0
  1 26  1  0
  2  3  2  0
  3  4  1  0
  4  5  2  0
  5  6  1  0
  6  7  2  0
  7  2  1  0
  8  9  1  0
  9 10  2  0
 10 11  1  0
 11 12  1  0
 11 25  1  0
 12 13  2  0
 13 14  1  0
 14 15  2  0
 15 16  1  0
 15 23  1  0
 16 17  1  0
 16 24  1  0
 17 18  2  0
 18 19  1  0
 19 20  2  0
 20 21  1  0
 21 22  2  0
 22 17  1  0
 23  8  2  0
 23 12  1  0
M  END
> <CMPD_CHEMBLID>
CHEMBL332333

> <STANDARD_TYPE>
IC50

> <RELATION>
=

> <STANDARD_VALUE>
1960

> <STANDARD_UNITS>
nM

> <Molecular_Weight>
302.33326

$$$$

  SciTegic11272012012D

 28 31  0  0  0  0            999 V2000
    2.8524    1.4900    0.0000 Cl  0  0
    2.8546    0.8300    0.0000 C   0  0
    3.5706    0.4200    0.0000 C   0  0
    3.5734   -0.4050    0.0000 C   0  0
    2.8604   -0.8200    0.0000 C   0  0
    2.1444   -0.4100    0.0000 C   0  0
    1.4302   -0.8237    0.0000 N   0  0
    0.7144   -0.4125    0.0000 C   0  0
    0.7144    0.4125    0.0000 N   0  0
    0.0000    0.8250    0.0000 C   0  0
   -0.7144    0.4125    0.0000 N   0  0
   -0.7144   -0.4125    0.0000 C   0  0
   -1.3273   -0.9641    0.0000 N   0  0
   -0.9918   -1.7178    0.0000 N   0  0
   -0.1713   -1.6316    0.0000 C   0  0
    0.3789   -2.2450    0.0000 N   0  0
    0.1229   -3.0297    0.0000 C   0  0
    0.6729   -3.6447    0.0000 C   0  0
    0.4154   -4.4284    0.0000 C   0  0
   -0.3921   -4.5973    0.0000 C   0  0
   -0.9421   -3.9824    0.0000 C   0  0
   -1.5882   -4.1175    0.0000 Cl  0  0
   -0.6846   -3.1986    0.0000 C   0  0
    0.0000   -0.8250    0.0000 C   0  0
    2.1416    0.4150    0.0000 C   0  0
    0.9171   -2.1315    0.0000 H   0  0
   -1.1908    0.6875    0.0000 H   0  0
    1.4311   -1.3737    0.0000 H   0  0
  1  2  1  0
  2  3  2  0
  3  4  1  0
  4  5  2  0
  5  6  1  0
  6  7  1  0
  6 25  2  0
  7  8  1  0
  7 28  1  0
  8  9  1  0
  9 10  2  0
 10 11  1  0
 11 12  1  0
 11 27  1  0
 12 13  2  0
 13 14  1  0
 14 15  2  0
 15 16  1  0
 15 24  1  0
 16 17  1  0
 16 26  1  0
 17 18  2  0
 18 19  1  0
 19 20  2  0
 20 21  1  0
 21 22  1  0
 21 23  2  0
 23 17  1  0
 24  8  2  0
 24 12  1  0
 25  2  1  0
M  END
> <CMPD_CHEMBLID>
CHEMBL333038

> <STANDARD_TYPE>
IC50

> <RELATION>
=

> <STANDARD_VALUE>
1980

> <STANDARD_UNITS>
nM

> <Molecular_Weight>
371.22338

$$$$

  SciTegic11272012012D

 30 31  0  0  0  0            999 V2000
    3.4313   -0.4904    0.0000 C   0  0
    2.8602   -0.8213    0.0000 O   0  0
    2.1444   -0.4100    0.0000 C   0  0
    1.4302   -0.8237    0.0000 O   0  0
    0.7144   -0.4125    0.0000 C   0  0
    0.7144    0.4125    0.0000 C   0  0
    0.0000    0.8250    0.0000 C   0  0
   -0.7144    0.4125    0.0000 C   0  0
   -0.7144   -0.4125    0.0000 C   0  0
   -1.4302   -0.8238    0.0000 O   0  0
   -2.1444   -0.4100    0.0000 C   0  0
   -2.8602   -0.8213    0.0000 O   0  0
   -3.4313   -0.4905    0.0000 C   0  0
    0.0000   -0.8250    0.0000 C   0  0
    0.0000   -1.6504    0.0000 C   0  0
    0.7151   -2.0618    0.0000 C   0  0
    0.7164   -2.8868    0.0000 C   0  0
    0.0026   -3.3005    0.0000 C   0  0
    0.0023   -4.1259    0.0000 N   0  0
   -0.7126   -4.5388    0.0000 S   0  0
   -0.7129   -5.1988    0.0000 O   0  0
   -1.2841   -4.2087    0.0000 O   0  0
   -1.2842   -4.8686    0.0000 C   0  0
   -0.7125   -2.8891    0.0000 C   0  0
   -0.7138   -2.0641    0.0000 C   0  0
   -1.4302   -1.6540    0.0000 C   0  0
   -1.4320   -1.1040    0.0000 O   0  0
   -2.1438   -2.0689    0.0000 O   0  0
   -2.7166   -1.7410    0.0000 C   0  0
    0.4785   -4.4010    0.0000 H   0  0
  1  2  1  0
  2  3  1  0
  3  4  1  0
  4  5  1  0
  5  6  2  0
  6  7  1  0
  7  8  2  0
  8  9  1  0
  9 10  1  0
  9 14  2  0
 10 11  1  0
 11 12  1  0
 12 13  1  0
 14  5  1  0
 14 15  1  0
 15 16  2  0
 16 17  1  0
 17 18  2  0
 18 19  1  0
 18 24  1  0
 19 20  1  0
 19 30  1  0
 20 21  2  0
 20 22  2  0
 20 23  1  0
 24 25  2  0
 25 15  1  0
 25 26  1  0
 26 27  2  0
 26 28  1  0
 28 29  1  0
M  END
> <CMPD_CHEMBLID>
CHEMBL2004025

> <STANDARD_TYPE>
Ki

> <RELATION>
=

> <STANDARD_VALUE>
1995.26

> <STANDARD_UNITS>
nM

> <Molecular_Weight>
425.45282

$$$$

  SciTegic11272012012D

 21 23  0  0  0  0            999 V2000
   -0.1742   -2.8725    0.0000 C   0  0
   -0.3790   -2.2450    0.0000 C   0  0
    0.1713   -1.6316    0.0000 C   0  0
    0.9918   -1.7179    0.0000 C   0  0
    1.3273   -0.9642    0.0000 N   0  0
    0.7145   -0.4125    0.0000 C   0  0
    0.7145    0.4125    0.0000 N   0  0
    0.0000    0.8250    0.0000 C   0  0
   -0.7145    0.4125    0.0000 C   0  0
   -0.7145   -0.4125    0.0000 N   0  0
    0.0000   -0.8250    0.0000 C   0  0
    1.4045   -2.4327    0.0000 C   0  0
    1.0477   -3.1735    0.0000 C   0  0
    1.5128   -3.8549    0.0000 C   0  0
    2.3355   -3.7928    0.0000 C   0  0
    2.6930   -3.0493    0.0000 C   0  0
    2.2279   -2.3679    0.0000 C   0  0
    2.8023   -4.4737    0.0000 C   0  0
    3.4603   -4.4231    0.0000 O   0  0
    2.5172   -5.0690    0.0000 C   0  0
    1.8654   -0.8498    0.0000 H   0  0
  1  2  1  0
  2  3  1  0
  3  4  2  0
  4  5  1  0
  4 12  1  0
  5  6  1  0
  5 21  1  0
  6  7  2  0
  7  8  1  0
  8  9  2  0
  9 10  1  0
 10 11  2  0
 11  3  1  0
 11  6  1  0
 12 13  2  0
 13 14  1  0
 14 15  2  0
 15 16  1  0
 15 18  1  0
 16 17  2  0
 17 12  1  0
 18 19  2  0
 18 20  1  0
M  END
> <CMPD_CHEMBLID>
CHEMBL1994555

> <STANDARD_TYPE>
Ki

> <RELATION>
=

> <STANDARD_VALUE>
1995.26

> <STANDARD_UNITS>
nM

> <Molecular_Weight>
265.3098

$$$$

  SciTegic11272012012D

 31 34  0  0  0  0            999 V2000
    2.9874   -5.6976    0.0000 C   0  0
    3.5601   -5.3697    0.0000 O   0  0
    3.5637   -4.5442    0.0000 C   0  0
    2.8502   -4.1301    0.0000 C   0  0
    2.8520   -3.3051    0.0000 C   0  0
    2.1388   -2.8893    0.0000 N   0  0
    2.1419   -2.0639    0.0000 C   0  0
    2.8570   -1.6525    0.0000 N   0  0
    2.8583   -0.8275    0.0000 C   0  0
    2.1445   -0.4139    0.0000 N   0  0
    1.4293   -0.8252    0.0000 C   0  0
    1.4281   -1.6502    0.0000 N   0  0
    0.7144   -0.4125    0.0000 N   0  0
    0.7144    0.4125    0.0000 C   0  0
    0.0000    0.8250    0.0000 C   0  0
   -0.7144    0.4125    0.0000 C   0  0
   -0.7144   -0.4125    0.0000 C   0  0
   -1.4290   -0.8250    0.0000 C   0  0
   -1.4290   -1.6500    0.0000 C   0  0
   -2.0005   -1.9800    0.0000 C   0  0
   -0.7144   -2.0625    0.0000 C   0  0
    0.0000   -1.6500    0.0000 C   0  0
    0.0000   -0.8250    0.0000 C   0  0
    3.5674   -2.8942    0.0000 C   0  0
    4.2809   -3.3083    0.0000 C   0  0
    4.9959   -2.8957    0.0000 O   0  0
    4.9964   -2.2357    0.0000 C   0  0
    4.2791   -4.1333    0.0000 C   0  0
    4.9922   -4.5491    0.0000 O   0  0
    4.9898   -5.2091    0.0000 C   0  0
    1.6614   -3.1624    0.0000 H   0  0
  1  2  1  0
  2  3  1  0
  3  4  2  0
  4  5  1  0
  5  6  1  0
  5 24  2  0
  6  7  1  0
  6 31  1  0
  7  8  2  0
  8  9  1  0
  9 10  2  0
 10 11  1  0
 11 12  2  0
 11 13  1  0
 12  7  1  0
 13 14  1  0
 14 15  1  0
 15 16  1  0
 16 17  1  0
 17 18  2  0
 18 19  1  0
 19 20  1  0
 19 21  2  0
 21 22  1  0
 22 23  2  0
 23 13  1  0
 23 17  1  0
 24 25  1  0
 25 26  1  0
 25 28  2  0
 26 27  1  0
 28  3  1  0
 28 29  1  0
 29 30  1  0
M  END
> <CMPD_CHEMBLID>
CHEMBL1992125

> <STANDARD_TYPE>
Ki

> <RELATION>
=

> <STANDARD_VALUE>
1995.26

> <STANDARD_UNITS>
nM

> <Molecular_Weight>
407.4656

$$$$

  SciTegic11272012012D

 29 31  0  0  0  0            999 V2000
    2.4030   -4.5137    0.0000 C   0  0
    2.1170   -3.9190    0.0000 C   0  0
    2.5821   -3.2376    0.0000 C   0  0
    2.2245   -2.4941    0.0000 C   0  0
    1.4045   -2.4327    0.0000 C   0  0
    0.9367   -3.1134    0.0000 C   0  0
    1.2943   -3.8569    0.0000 C   0  0
    0.9918   -1.7178    0.0000 C   0  0
    1.3273   -0.9642    0.0000 C   0  0
    0.7145   -0.4125    0.0000 C   0  0
    0.7145    0.4125    0.0000 C   0  0
    1.4285    0.8267    0.0000 N   0  0
    1.4273    1.6522    0.0000 C   0  0
    2.1413    2.0664    0.0000 C   0  0
    2.1402    2.8918    0.0000 N   0  0
    0.0000    0.8250    0.0000 C   0  0
   -0.7145    0.4125    0.0000 C   0  0
   -0.7145   -0.4125    0.0000 C   0  0
   -1.4302   -0.8238    0.0000 C   0  0
   -1.4313   -1.4838    0.0000 O   0  0
   -2.1445   -0.4100    0.0000 N   0  0
    0.0000   -0.8250    0.0000 C   0  0
    0.1713   -1.6316    0.0000 N   0  0
   -0.1967   -2.0403    0.0000 H   0  0
   -2.6214   -0.6840    0.0000 H   0  0
   -2.1435    0.1400    0.0000 H   0  0
    2.6159    3.1678    0.0000 H   0  0
    1.6634    3.1660    0.0000 H   0  0
    1.9053    0.5525    0.0000 H   0  0
  1  2  1  0
  2  3  2  0
  3  4  1  0
  4  5  2  0
  5  6  1  0
  5  8  1  0
  6  7  2  0
  7  2  1  0
  8  9  2  0
  9 10  1  0
 10 11  2  0
 11 12  1  0
 11 16  1  0
 12 13  1  0
 12 29  1  0
 13 14  1  0
 14 15  1  0
 15 27  1  0
 15 28  1  0
 16 17  2  0
 17 18  1  0
 18 19  1  0
 18 22  2  0
 19 20  2  0
 19 21  1  0
 21 25  1  0
 21 26  1  0
 22 10  1  0
 22 23  1  0
 23  8  1  0
 23 24  1  0
M  END
> <CMPD_CHEMBLID>
CHEMBL1996048

> <STANDARD_TYPE>
Ki

> <RELATION>
=

> <STANDARD_VALUE>
1995.26

> <STANDARD_UNITS>
nM

> <Molecular_Weight>
308.3776

$$$$

  SciTegic11272012012D

 31 34  0  0  0  0            999 V2000
   -0.0026   -3.9635    0.0000 C   0  0
   -0.0024   -3.3035    0.0000 C   0  0
    0.7123   -2.8906    0.0000 C   0  0
    0.7126   -2.0651    0.0000 C   0  0
    1.4273   -1.6521    0.0000 N   0  0
    2.1413   -2.0663    0.0000 C   0  0
    2.1402   -2.8918    0.0000 C   0  0
    2.8542   -3.3060    0.0000 C   0  0
    3.4251   -3.6372    0.0000 N   0  0
    1.4285   -0.8267    0.0000 C   0  0
    2.0006   -0.4977    0.0000 O   0  0
    0.7144   -0.4125    0.0000 C   0  0
    0.7144    0.4125    0.0000 C   0  0
    0.0000    0.8250    0.0000 C   0  0
   -0.7144    0.4125    0.0000 C   0  0
   -1.4986    0.6674    0.0000 N   0  0
   -1.9836    0.0000    0.0000 C   0  0
   -1.4986   -0.6674    0.0000 N   0  0
   -0.7144   -0.4125    0.0000 C   0  0
    0.0000   -0.8250    0.0000 C   0  0
   -2.8090    0.0000    0.0000 C   0  0
   -3.2264   -0.7041    0.0000 N   0  0
   -4.0285   -0.5112    0.0000 N   0  0
   -4.0927    0.3109    0.0000 C   0  0
   -4.7470    0.8133    0.0000 C   0  0
   -4.6390    1.6312    0.0000 C   0  0
   -3.8767    1.9467    0.0000 C   0  0
   -3.2224    1.4442    0.0000 C   0  0
   -3.3304    0.6263    0.0000 C   0  0
   -4.4469   -0.8682    0.0000 H   0  0
   -1.6685   -1.1905    0.0000 H   0  0
  1  2  1  0
  2  3  1  0
  3  4  1  0
  4  5  1  0
  5  6  1  0
  5 10  1  0
  6  7  1  0
  7  8  1  0
  8  9  3  0
 10 11  2  0
 10 12  1  0
 12 13  2  0
 13 14  1  0
 14 15  2  0
 15 16  1  0
 16 17  2  0
 17 18  1  0
 17 21  1  0
 18 19  1  0
 18 31  1  0
 19 15  1  0
 19 20  2  0
 20 12  1  0
 21 22  2  0
 22 23  1  0
 23 24  1  0
 23 30  1  0
 24 25  2  0
 25 26  1  0
 26 27  2  0
 27 28  1  0
 28 29  2  0
 29 21  1  0
 29 24  1  0
M  END
> <CMPD_CHEMBLID>
CHEMBL1983348

> <STANDARD_TYPE>
Ki

> <RELATION>
=

> <STANDARD_VALUE>
1995.26

> <STANDARD_UNITS>
nM

> <Molecular_Weight>
386.44968

$$$$

  SciTegic11272012012D

 23 25  0  0  0  0            999 V2000
    1.2861   -0.7425    0.0000 C   0  0
    0.7144   -0.4125    0.0000 C   0  0
    0.7144    0.4125    0.0000 C   0  0
    0.0000    0.8250    0.0000 C   0  0
   -0.7144    0.4125    0.0000 C   0  0
   -1.4302    0.8237    0.0000 N   0  0
   -2.1444    0.4100    0.0000 C   0  0
   -2.8601    0.8213    0.0000 C   0  0
   -3.5747    0.4088    0.0000 C   0  0
   -4.2892    0.8213    0.0000 C   0  0
   -4.2892    1.6463    0.0000 C   0  0
   -3.5747    2.0587    0.0000 N   0  0
   -2.8602    1.6463    0.0000 C   0  0
   -5.0040    2.0589    0.0000 C   0  0
   -5.7191    1.6476    0.0000 C   0  0
   -6.4330    2.0612    0.0000 C   0  0
   -6.4317    2.8862    0.0000 C   0  0
   -7.0027    3.2171    0.0000 F   0  0
   -5.7166    3.2976    0.0000 C   0  0
   -5.0028    2.8840    0.0000 C   0  0
   -0.7144   -0.4125    0.0000 C   0  0
    0.0000   -0.8250    0.0000 C   0  0
   -1.4311    1.3737    0.0000 H   0  0
  1  2  1  0
  2  3  2  0
  3  4  1  0
  4  5  2  0
  5  6  1  0
  5 21  1  0
  6  7  1  0
  6 23  1  0
  7  8  1  0
  8  9  2  0
  9 10  1  0
 10 11  2  0
 11 12  1  0
 11 14  1  0
 12 13  2  0
 13  8  1  0
 14 15  2  0
 15 16  1  0
 16 17  2  0
 17 18  1  0
 17 19  1  0
 19 20  2  0
 20 14  1  0
 21 22  2  0
 22  2  1  0
M  END
> <CMPD_CHEMBLID>
CHEMBL1986899

> <STANDARD_TYPE>
Ki

> <RELATION>
=

> <STANDARD_VALUE>
1995.26

> <STANDARD_UNITS>
nM

> <Molecular_Weight>
292.35008

$$$$

  SciTegic11272012012D

 32 35  0  0  0  0            999 V2000
    1.2861   -0.7425    0.0000 C   0  0
    0.7145   -0.4125    0.0000 C   0  0
    0.7145    0.4125    0.0000 N   0  0
    0.0000    0.8250    0.0000 C   0  0
   -0.7145    0.4125    0.0000 C   0  0
   -0.7145   -0.4125    0.0000 N   0  0
   -1.3273   -0.9642    0.0000 C   0  0
   -2.1348   -0.7925    0.0000 C   0  0
   -2.4465   -0.0316    0.0000 C   0  0
   -3.2641    0.0788    0.0000 C   0  0
   -3.7684   -0.5742    0.0000 N   0  0
   -3.4552   -1.3373    0.0000 C   0  0
   -3.9585   -1.9917    0.0000 N   0  0
   -3.6440   -2.7549    0.0000 C   0  0
   -4.1473   -3.4092    0.0000 C   0  0
   -4.8015   -3.3221    0.0000 C   0  0
   -4.3990   -2.7991    0.0000 C   0  0
   -3.8328   -4.1724    0.0000 O   0  0
   -2.6376   -1.4477    0.0000 N   0  0
   -0.9918   -1.7178    0.0000 C   0  0
   -0.1713   -1.6316    0.0000 N   0  0
    0.0000   -0.8250    0.0000 C   0  0
   -1.4045   -2.4327    0.0000 C   0  0
   -0.9367   -3.1134    0.0000 C   0  0
   -1.2943   -3.8569    0.0000 C   0  0
   -2.1169   -3.9190    0.0000 C   0  0
   -2.4030   -4.5138    0.0000 F   0  0
   -2.5821   -3.2376    0.0000 C   0  0
   -2.2245   -2.4941    0.0000 C   0  0
   -2.5964   -1.9488    0.0000 F   0  0
   -4.1681   -4.6083    0.0000 H   0  0
   -4.5037   -1.9190    0.0000 H   0  0
  1  2  1  0
  2  3  2  0
  3  4  1  0
  4  5  2  0
  5  6  1  0
  6  7  1  0
  7  8  1  0
  7 20  2  0
  8  9  2  0
  9 10  1  0
 10 11  2  0
 11 12  1  0
 12 13  1  0
 12 19  2  0
 13 14  1  0
 13 32  1  0
 14 15  1  0
 15 16  1  0
 15 17  1  0
 15 18  1  0
 18 31  1  0
 19  8  1  0
 20 21  1  0
 20 23  1  0
 21 22  2  0
 22  2  1  0
 22  6  1  0
 23 24  2  0
 24 25  1  0
 25 26  2  0
 26 27  1  0
 26 28  1  0
 28 29  2  0
 29 23  1  0
 29 30  1  0
M  END
> <CMPD_CHEMBLID>
CHEMBL1996500

> <STANDARD_TYPE>
Ki

> <RELATION>
>

> <STANDARD_VALUE>
1995.26

> <STANDARD_UNITS>
nM

> <Molecular_Weight>
410.41991

$$$$

  SciTegic11272012012D

 21 23  0  0  0  0            999 V2000
    0.2014   -2.2716    0.0000 N   0  0
    0.7144   -1.6250    0.0000 C   0  0
    1.5302   -1.7479    0.0000 N   0  0
    2.0446   -1.1029    0.0000 C   0  0
    1.7432   -0.3349    0.0000 N   0  0
    0.9268   -0.2115    0.0000 C   0  0
    0.7433    0.5928    0.0000 N   0  0
    0.0000    0.9507    0.0000 C   0  0
    0.0613    1.7740    0.0000 C   0  0
   -0.6203    2.2387    0.0000 C   0  0
   -1.3636    1.8808    0.0000 C   0  0
   -1.4253    1.0581    0.0000 C   0  0
   -0.7433    0.5927    0.0000 C   0  0
   -0.9268   -0.2116    0.0000 N   0  0
   -0.4125   -0.8566    0.0000 C   0  0
   -0.6989   -1.4512    0.0000 O   0  0
    0.4125   -0.8566    0.0000 C   0  0
   -1.4631   -0.3340    0.0000 H   0  0
    1.1733    0.9357    0.0000 H   0  0
    0.4033   -2.7832    0.0000 H   0  0
   -0.3426   -2.1908    0.0000 H   0  0
  1  2  1  0
  1 20  1  0
  1 21  1  0
  2  3  2  0
  3  4  1  0
  4  5  2  0
  5  6  1  0
  6  7  1  0
  7  8  1  0
  7 19  1  0
  8  9  2  0
  9 10  1  0
 10 11  2  0
 11 12  1  0
 12 13  2  0
 13  8  1  0
 13 14  1  0
 14 15  1  0
 14 18  1  0
 15 16  2  0
 15 17  1  0
 17  2  1  0
 17  6  2  0
M  END
> <CMPD_CHEMBLID>
CHEMBL1980671

> <STANDARD_TYPE>
Ki

> <RELATION>
=

> <STANDARD_VALUE>
1995.26

> <STANDARD_UNITS>
nM

> <Molecular_Weight>
227.22206

$$$$

  SciTegic11272012012D

 37 40  0  0  0  0            999 V2000
   -2.0203   -5.4312    0.0000 C   0  0
   -1.4506   -5.7644    0.0000 O   0  0
   -0.7332   -5.3561    0.0000 C   0  0
   -0.7298   -4.5311    0.0000 C   0  0
   -0.0136   -4.1214    0.0000 C   0  0
   -0.0086   -3.2960    0.0000 N   0  0
    0.7086   -2.8872    0.0000 C   0  0
    1.4216   -3.3022    0.0000 N   0  0
    2.1375   -2.8922    0.0000 C   0  0
    2.1403   -2.0672    0.0000 C   0  0
    2.7131   -1.7392    0.0000 F   0  0
    1.4273   -1.6521    0.0000 C   0  0
    1.4285   -0.8267    0.0000 N   0  0
    0.7144   -0.4125    0.0000 C   0  0
    0.7144    0.4125    0.0000 C   0  0
    0.0000    0.8250    0.0000 C   0  0
   -0.7144    0.4125    0.0000 C   0  0
   -1.4290    0.8250    0.0000 O   0  0
   -2.1434    0.4125    0.0000 C   0  0
   -2.7070    0.0691    0.0000 C   0  0
   -2.1279    1.0723    0.0000 C   0  0
   -2.1434   -0.4125    0.0000 C   0  0
   -2.7150   -0.7425    0.0000 O   0  0
   -1.4290   -0.8250    0.0000 N   0  0
   -0.7144   -0.4125    0.0000 C   0  0
    0.0000   -0.8250    0.0000 N   0  0
    0.7114   -2.0622    0.0000 N   0  0
    0.6992   -4.5370    0.0000 C   0  0
    0.6957   -5.3620    0.0000 C   0  0
    1.4098   -5.7761    0.0000 O   0  0
    1.9822   -5.4476    0.0000 C   0  0
   -0.0204   -5.7715    0.0000 C   0  0
   -0.0255   -6.5969    0.0000 O   0  0
   -0.5989   -6.9238    0.0000 C   0  0
   -1.4290   -1.3750    0.0000 H   0  0
    1.9053   -0.5525    0.0000 H   0  0
   -0.4833   -3.0182    0.0000 H   0  0
  1  2  1  0
  2  3  1  0
  3  4  2  0
  4  5  1  0
  5  6  1  0
  5 28  2  0
  6  7  1  0
  6 37  1  0
  7  8  2  0
  8  9  1  0
  9 10  2  0
 10 11  1  0
 10 12  1  0
 12 13  1  0
 12 27  2  0
 13 14  1  0
 13 36  1  0
 14 15  2  0
 15 16  1  0
 16 17  2  0
 17 18  1  0
 18 19  1  0
 19 20  1  0
 19 21  1  0
 19 22  1  0
 22 23  2  0
 22 24  1  0
 24 25  1  0
 24 35  1  0
 25 17  1  0
 25 26  2  0
 26 14  1  0
 27  7  1  0
 28 29  1  0
 29 30  1  0
 29 32  2  0
 30 31  1  0
 32  3  1  0
 32 33  1  0
 33 34  1  0
M  END
> <CMPD_CHEMBLID>
CHEMBL475251

> <STANDARD_TYPE>
Ki

> <RELATION>
>

> <STANDARD_VALUE>
1995.26

> <STANDARD_UNITS>
nM

> <Molecular_Weight>
470.45362

$$$$

  SciTegic11272012012D

 38 42  0  0  0  0            999 V2000
    2.1408   -2.7239    0.0000 C   0  0
    2.1419   -2.0639    0.0000 N   0  0
    2.8570   -1.6525    0.0000 C   0  0
    2.8583   -0.8275    0.0000 N   0  0
    2.1445   -0.4139    0.0000 C   0  0
    1.4293   -0.8252    0.0000 C   0  0
    1.4281   -1.6502    0.0000 C   0  0
    0.8560   -1.9793    0.0000 O   0  0
    0.7144   -0.4125    0.0000 C   0  0
    0.7144    0.4125    0.0000 C   0  0
    0.0000    0.8250    0.0000 C   0  0
   -0.7144    0.4125    0.0000 C   0  0
   -1.4289    0.8250    0.0000 C   0  0
   -2.1434    0.4125    0.0000 C   0  0
   -2.1434   -0.4125    0.0000 C   0  0
   -1.4289   -0.8250    0.0000 C   0  0
   -0.7144   -0.4125    0.0000 C   0  0
    0.0000   -0.8250    0.0000 C   0  0
    2.1458    0.4116    0.0000 C   0  0
    1.4326    0.8264    0.0000 C   0  0
    1.4353    1.6514    0.0000 C   0  0
    2.1510    2.0616    0.0000 N   0  0
    2.8642    1.6468    0.0000 C   0  0
    2.8616    0.8218    0.0000 C   0  0
    3.5721   -2.0649    0.0000 N   0  0
    4.2870   -1.6522    0.0000 C   0  0
    5.0020   -2.0646    0.0000 C   0  0
    5.0039   -2.8901    0.0000 N   0  0
    5.7169   -1.6520    0.0000 C   0  0
    6.4320   -2.0644    0.0000 C   0  0
    7.1472   -1.6531    0.0000 C   0  0
    7.8610   -2.0667    0.0000 C   0  0
    7.8597   -2.8917    0.0000 C   0  0
    7.1446   -3.3031    0.0000 C   0  0
    6.4307   -2.8895    0.0000 C   0  0
    5.4806   -3.1644    0.0000 H   0  0
    4.5281   -3.1660    0.0000 H   0  0
    3.5721   -2.6149    0.0000 H   0  0
  1  2  1  0
  2  3  1  0
  3  4  2  0
  3 25  1  0
  4  5  1  0
  5  6  2  0
  5 19  1  0
  6  7  1  0
  6  9  1  0
  7  2  1  0
  7  8  2  0
  9 10  2  0
 10 11  1  0
 11 12  2  0
 12 13  1  0
 13 14  2  0
 14 15  1  0
 15 16  2  0
 16 17  1  0
 17 12  1  0
 17 18  2  0
 18  9  1  0
 19 20  2  0
 20 21  1  0
 21 22  2  0
 22 23  1  0
 23 24  2  0
 24 19  1  0
 25 26  1  0
 25 38  1  0
 26 27  1  0
 27 28  1  0
 27 29  1  0
 28 36  1  0
 28 37  1  0
 29 30  1  0
 30 31  2  0
 31 32  1  0
 32 33  2  0
 33 34  1  0
 34 35  2  0
 35 30  1  0
M  END
> <CMPD_CHEMBLID>
CHEMBL1990496

> <STANDARD_TYPE>
Ki

> <RELATION>
>

> <STANDARD_VALUE>
1995.26

> <STANDARD_UNITS>
nM

> <Molecular_Weight>
461.55758

$$$$

  SciTegic11272012012D

 27 29  0  0  0  0            999 V2000
    4.8520    1.9903    0.0000 F   0  0
    4.2818    1.6579    0.0000 C   0  0
    3.7090    1.9858    0.0000 F   0  0
    4.2792    2.3179    0.0000 F   0  0
    4.2847    0.8325    0.0000 C   0  0
    5.0005    0.4225    0.0000 C   0  0
    5.0034   -0.4025    0.0000 C   0  0
    4.2904   -0.8175    0.0000 C   0  0
    3.5744   -0.4075    0.0000 C   0  0
    2.8602   -0.8213    0.0000 N   0  0
    2.1444   -0.4100    0.0000 C   0  0
    2.1433    0.2500    0.0000 O   0  0
    1.4302   -0.8237    0.0000 N   0  0
    0.7144   -0.4125    0.0000 C   0  0
    0.7144    0.4125    0.0000 C   0  0
    0.0000    0.8250    0.0000 C   0  0
   -0.7144    0.4125    0.0000 N   0  0
   -0.7144   -0.4125    0.0000 C   0  0
   -1.4290   -0.8250    0.0000 C   0  0
   -1.4290   -1.6500    0.0000 C   0  0
   -0.7144   -2.0625    0.0000 C   0  0
   -0.7144   -2.7225    0.0000 Cl  0  0
    0.0000   -1.6500    0.0000 C   0  0
    0.0000   -0.8250    0.0000 C   0  0
    3.5716    0.4175    0.0000 N   0  0
    1.4312   -1.3737    0.0000 H   0  0
    2.8612   -1.3713    0.0000 H   0  0
  1  2  1  0
  2  3  1  0
  2  4  1  0
  2  5  1  0
  5  6  2  0
  6  7  1  0
  7  8  2  0
  8  9  1  0
  9 10  1  0
  9 25  2  0
 10 11  1  0
 10 27  1  0
 11 12  2  0
 11 13  1  0
 13 14  1  0
 13 26  1  0
 14 15  2  0
 15 16  1  0
 16 17  2  0
 17 18  1  0
 18 19  2  0
 19 20  1  0
 20 21  2  0
 21 22  1  0
 21 23  1  0
 23 24  2  0
 24 14  1  0
 24 18  1  0
 25  5  1  0
M  END
> <CMPD_CHEMBLID>
CHEMBL1967513

> <STANDARD_TYPE>
Ki

> <RELATION>
=

> <STANDARD_VALUE>
1995.26

> <STANDARD_UNITS>
nM

> <Molecular_Weight>
366.72501

$$$$

  SciTegic11272012012D

 45 50  0  0  0  0            999 V2000
   -0.5613   -5.4217    0.0000 C   0  0
   -0.2454   -4.8421    0.0000 O   0  0
   -0.6751   -4.1374    0.0000 C   0  0
   -1.4998   -4.1588    0.0000 C   0  0
   -1.9307   -3.4552    0.0000 C   0  0
   -1.5369   -2.7303    0.0000 C   0  0
   -1.9666   -2.0255    0.0000 C   0  0
   -1.5715   -1.3007    0.0000 N   0  0
   -1.8578   -0.8311    0.0000 C   0  0
   -0.9117   -1.2847    0.0000 C   0  0
   -0.7122   -2.7089    0.0000 C   0  0
   -0.2812   -3.4124    0.0000 C   0  0
    0.5439   -3.3893    0.0000 N   0  0
    0.9369   -2.6634    0.0000 C   0  0
    1.7616   -2.6392    0.0000 N   0  0
    2.1529   -1.9129    0.0000 C   0  0
    1.7196   -1.2109    0.0000 C   0  0
    0.8977   -1.2355    0.0000 C   0  0
    0.5036   -1.9614    0.0000 N   0  0
    0.4125   -0.5678    0.0000 C   0  0
    0.6674    0.2169    0.0000 C   0  0
    0.0000    0.7018    0.0000 N   0  0
   -0.6674    0.2169    0.0000 C   0  0
   -1.4913    0.2172    0.0000 S   0  0
   -1.7462   -0.5674    0.0000 C   0  0
   -1.0788   -1.0523    0.0000 C   0  0
   -0.4125   -0.5678    0.0000 N   0  0
    1.4524    0.4720    0.0000 C   0  0
    2.1029   -0.0311    0.0000 C   0  0
    2.8661    0.2821    0.0000 C   0  0
    2.9764    1.0997    0.0000 C   0  0
    2.3235    1.6041    0.0000 C   0  0
    2.4322    2.4224    0.0000 N   0  0
    1.7783    2.9260    0.0000 C   0  0
    1.1681    2.6744    0.0000 O   0  0
    1.8869    3.7443    0.0000 C   0  0
    1.2329    4.2480    0.0000 C   0  0
    1.3404    5.0659    0.0000 C   0  0
    0.6857    5.5680    0.0000 C   0  0
   -0.0763    5.2521    0.0000 C   0  0
   -0.1839    4.4341    0.0000 C   0  0
    0.4708    3.9321    0.0000 C   0  0
    1.5603    1.2908    0.0000 C   0  0
    2.9406    2.6321    0.0000 H   0  0
    0.8320   -3.8578    0.0000 H   0  0
  1  2  1  0
  2  3  1  0
  3  4  2  0
  4  5  1  0
  5  6  2  0
  6  7  1  0
  6 11  1  0
  7  8  1  0
  8  9  1  0
  8 10  1  0
 11 12  2  0
 12  3  1  0
 12 13  1  0
 13 14  1  0
 13 45  1  0
 14 15  2  0
 15 16  1  0
 16 17  2  0
 17 18  1  0
 18 19  2  0
 18 20  1  0
 19 14  1  0
 20 21  2  0
 21 22  1  0
 21 28  1  0
 22 23  2  0
 23 24  1  0
 24 25  1  0
 25 26  2  0
 26 27  1  0
 27 20  1  0
 27 23  1  0
 28 29  2  0
 29 30  1  0
 30 31  2  0
 31 32  1  0
 32 33  1  0
 32 43  2  0
 33 34  1  0
 33 44  1  0
 34 35  2  0
 34 36  1  0
 36 37  1  0
 37 38  2  0
 38 39  1  0
 39 40  2  0
 40 41  1  0
 41 42  2  0
 42 37  1  0
 43 28  1  0
M  END
> <CMPD_CHEMBLID>
CHEMBL1966842

> <STANDARD_TYPE>
Ki

> <RELATION>
=

> <STANDARD_VALUE>
1995.26

> <STANDARD_UNITS>
nM

> <Molecular_Weight>
589.70994

$$$$

  SciTegic11272012012D

 25 28  0  0  0  0            999 V2000
    2.2541   -3.0993    0.0000 C   0  0
    2.6434   -2.5664    0.0000 C   0  0
    3.2996   -2.6373    0.0000 C   0  0
    2.3107   -1.8125    0.0000 N   0  0
    1.5040   -1.6398    0.0000 N   0  0
    1.4293   -0.8252    0.0000 C   0  0
    0.7145   -0.4125    0.0000 C   0  0
    0.7145    0.4125    0.0000 C   0  0
    0.0000    0.8250    0.0000 N   0  0
   -0.7145    0.4125    0.0000 C   0  0
   -1.4290    0.8250    0.0000 N   0  0
   -2.1434    0.4125    0.0000 C   0  0
   -2.1434   -0.4125    0.0000 C   0  0
   -1.4290   -0.8250    0.0000 N   0  0
   -0.7145   -0.4125    0.0000 C   0  0
    0.0000   -0.8250    0.0000 C   0  0
    2.1727   -0.4850    0.0000 C   0  0
    2.4288    0.2993    0.0000 C   0  0
    1.8786    0.9146    0.0000 N   0  0
    3.2361    0.4696    0.0000 N   0  0
    3.7872   -0.1443    0.0000 C   0  0
    3.5311   -0.9285    0.0000 N   0  0
    2.7239   -1.0989    0.0000 C   0  0
    2.0501    1.4372    0.0000 H   0  0
    1.3402    0.8020    0.0000 H   0  0
  1  2  1  0
  2  3  1  0
  2  4  1  0
  4  5  1  0
  5  6  2  0
  6  7  1  0
  6 17  1  0
  7  8  2  0
  8  9  1  0
  9 10  2  0
 10 11  1  0
 11 12  2  0
 12 13  1  0
 13 14  2  0
 14 15  1  0
 15 10  1  0
 15 16  2  0
 16  7  1  0
 17 18  2  0
 18 19  1  0
 18 20  1  0
 19 24  1  0
 19 25  1  0
 20 21  2  0
 21 22  1  0
 22 23  2  0
 23  4  1  0
 23 17  1  0
M  END
> <CMPD_CHEMBLID>
CHEMBL1241775

> <STANDARD_TYPE>
IC50

> <RELATION>
=

> <STANDARD_VALUE>
2000

> <STANDARD_UNITS>
nM

> <Molecular_Weight>
306.32526

$$$$

  SciTegic11272012012D

 28 31  0  0  0  0            999 V2000
    4.8607   -1.9762    0.0000 F   0  0
    4.2891   -1.6462    0.0000 C   0  0
    4.2891   -0.8213    0.0000 C   0  0
    3.5746   -0.4088    0.0000 C   0  0
    2.8601   -0.8213    0.0000 C   0  0
    2.1444   -0.4100    0.0000 C   0  0
    1.4301   -0.8237    0.0000 N   0  0
    0.7144   -0.4125    0.0000 C   0  0
    0.7144    0.4125    0.0000 N   0  0
    0.0000    0.8250    0.0000 C   0  0
   -0.7144    0.4125    0.0000 N   0  0
   -0.7144   -0.4125    0.0000 C   0  0
    0.0000   -0.8250    0.0000 C   0  0
   -0.1713   -1.6316    0.0000 C   0  0
   -0.9917   -1.7178    0.0000 N   0  0
   -1.3273   -0.9641    0.0000 N   0  0
   -2.1336   -0.7943    0.0000 C   0  0
   -2.6852   -1.4084    0.0000 C   0  0
   -2.4803   -2.0358    0.0000 Cl  0  0
   -3.4930   -1.2383    0.0000 C   0  0
   -4.0451   -1.8513    0.0000 C   0  0
   -4.8520   -1.6797    0.0000 C   0  0
   -5.1069   -0.8950    0.0000 C   0  0
   -4.5548   -0.2820    0.0000 C   0  0
   -3.7478   -0.4536    0.0000 C   0  0
    2.8602   -1.6463    0.0000 C   0  0
    3.5747   -2.0587    0.0000 C   0  0
    1.4311   -1.3737    0.0000 H   0  0
  1  2  1  0
  2  3  2  0
  3  4  1  0
  4  5  2  0
  5  6  1  0
  5 26  1  0
  6  7  1  0
  7  8  1  0
  7 28  1  0
  8  9  2  0
  9 10  1  0
 10 11  2  0
 11 12  1  0
 12 13  2  0
 13  8  1  0
 13 14  1  0
 14 15  2  0
 15 16  1  0
 16 12  1  0
 16 17  1  0
 17 18  1  0
 18 19  1  0
 18 20  1  0
 20 21  2  0
 21 22  1  0
 22 23  2  0
 23 24  1  0
 24 25  2  0
 25 20  1  0
 26 27  2  0
 27  2  1  0
M  END
> <CMPD_CHEMBLID>
CHEMBL272169

> <STANDARD_TYPE>
Ki

> <RELATION>
=

> <STANDARD_VALUE>
2000

> <STANDARD_UNITS>
nM

> <Molecular_Weight>
381.83388

$$$$

  SciTegic11272012012D

 30 33  0  0  0  0            999 V2000
    1.2861   -0.7425    0.0000 C   0  0
    0.7144   -0.4125    0.0000 N   0  0
    0.7144    0.4125    0.0000 C   0  0
    1.2861    0.7425    0.0000 O   0  0
    0.0000    0.8250    0.0000 C   0  0
   -0.7144    0.4125    0.0000 C   0  0
   -0.7144   -0.4125    0.0000 C   0  0
   -1.4290   -0.8250    0.0000 C   0  0
   -1.4290   -1.6500    0.0000 N   0  0
   -0.7144   -2.0625    0.0000 C   0  0
   -0.7127   -2.8879    0.0000 N   0  0
    0.0027   -3.2997    0.0000 C   0  0
    0.0044   -4.1251    0.0000 C   0  0
    0.7188   -4.5377    0.0000 C   0  0
    0.7189   -5.3627    0.0000 C   0  0
    0.0045   -5.7752    0.0000 C   0  0
   -0.7100   -5.3627    0.0000 C   0  0
   -1.4258   -5.7740    0.0000 N   0  0
   -0.7100   -4.5377    0.0000 C   0  0
    0.0000   -1.6500    0.0000 N   0  0
    0.0000   -0.8250    0.0000 C   0  0
    0.0000    1.6504    0.0000 C   0  0
    0.7138    2.0641    0.0000 C   0  0
    0.7125    2.8891    0.0000 C   0  0
   -0.0026    3.3005    0.0000 C   0  0
   -0.7164    2.8868    0.0000 C   0  0
   -0.7151    2.0618    0.0000 C   0  0
   -1.9017   -5.4983    0.0000 H   0  0
   -1.4267   -6.3240    0.0000 H   0  0
   -1.1886   -3.1638    0.0000 H   0  0
  1  2  1  0
  2  3  1  0
  3  4  2  0
  3  5  1  0
  5  6  2  0
  5 22  1  0
  6  7  1  0
  7  8  2  0
  8  9  1  0
  9 10  2  0
 10 11  1  0
 10 20  1  0
 11 12  1  0
 11 30  1  0
 12 13  1  0
 13 14  2  0
 14 15  1  0
 15 16  2  0
 16 17  1  0
 17 18  1  0
 17 19  2  0
 18 28  1  0
 18 29  1  0
 19 13  1  0
 20 21  2  0
 21  2  1  0
 21  7  1  0
 22 23  2  0
 23 24  1  0
 24 25  2  0
 25 26  1  0
 26 27  2  0
 27 22  1  0
M  END
> <CMPD_CHEMBLID>
CHEMBL1223410

> <STANDARD_TYPE>
Ki

> <RELATION>
=

> <STANDARD_VALUE>
2000

> <STANDARD_UNITS>
nM

> <Molecular_Weight>
357.40846

$$$$

  SciTegic11272012012D

 27 29  0  0  0  0            999 V2000
    2.0013   -0.4930    0.0000 C   0  0
    1.4302   -0.8237    0.0000 O   0  0
    0.7144   -0.4125    0.0000 C   0  0
    0.7144    0.4125    0.0000 C   0  0
    0.0000    0.8250    0.0000 C   0  0
   -0.0017    1.6504    0.0000 S   0  0
   -0.5738    1.9796    0.0000 C   0  0
   -0.7144    0.4125    0.0000 C   0  0
   -0.7144   -0.4125    0.0000 C   0  0
    0.0000   -0.8250    0.0000 C   0  0
   -0.0017   -1.6504    0.0000 C   0  0
    0.5693   -1.9814    0.0000 O   0  0
   -0.7171   -2.0622    0.0000 N   0  0
   -0.7188   -2.8876    0.0000 C   0  0
   -1.3863   -3.3605    0.0000 N   0  0
   -1.1314   -4.1451    0.0000 N   0  0
   -0.3064   -4.1451    0.0000 C   0  0
    0.1794   -4.8108    0.0000 C   0  0
    1.0002   -4.7233    0.0000 C   0  0
    1.4868   -5.3901    0.0000 C   0  0
    2.3073   -5.3039    0.0000 C   0  0
    2.7922   -5.9713    0.0000 C   0  0
    2.4567   -6.7250    0.0000 C   0  0
    1.6362   -6.8113    0.0000 C   0  0
    1.1513   -6.1439    0.0000 C   0  0
   -0.0514   -3.3605    0.0000 S   0  0
   -1.1930   -1.7863    0.0000 H   0  0
  1  2  1  0
  2  3  1  0
  3  4  2  0
  4  5  1  0
  5  6  1  0
  5  8  2  0
  6  7  1  0
  8  9  1  0
  9 10  2  0
 10  3  1  0
 10 11  1  0
 11 12  2  0
 11 13  1  0
 13 14  1  0
 13 27  1  0
 14 15  2  0
 15 16  1  0
 16 17  2  0
 17 18  1  0
 17 26  1  0
 18 19  1  0
 19 20  1  0
 20 21  2  0
 21 22  1  0
 22 23  2  0
 23 24  1  0
 24 25  2  0
 25 20  1  0
 26 14  1  0
M  END
> <CMPD_CHEMBLID>
CHEMBL376993

> <STANDARD_TYPE>
Ki

> <RELATION>
=

> <STANDARD_VALUE>
2000

> <STANDARD_UNITS>
nM

> <Molecular_Weight>
385.50306

$$$$

  SciTegic11272012012D

 31 34  0  0  0  0            999 V2000
    1.4291   -1.4852    0.0000 C   0  0
    1.4293   -0.8252    0.0000 S   0  0
    2.0011   -0.4956    0.0000 O   0  0
    2.0007   -1.1555    0.0000 O   0  0
    0.7144   -0.4125    0.0000 C   0  0
    0.7144    0.4125    0.0000 N   0  0
    0.0000    0.8250    0.0000 C   0  0
    0.0017    1.6504    0.0000 N   0  0
    0.7171    2.0622    0.0000 C   0  0
    0.7188    2.8876    0.0000 C   0  0
    1.4333    3.3002    0.0000 C   0  0
    1.4333    4.1252    0.0000 C   0  0
    0.7188    4.5377    0.0000 C   0  0
    0.0043    4.1252    0.0000 C   0  0
    0.0043    3.3002    0.0000 C   0  0
   -0.7144    0.4125    0.0000 C   0  0
   -1.4986    0.6674    0.0000 C   0  0
   -1.9836    0.0000    0.0000 N   0  0
   -1.4986   -0.6674    0.0000 N   0  0
   -1.7547   -1.4507    0.0000 C   0  0
   -2.5623   -1.6213    0.0000 C   0  0
   -3.0032   -1.1301    0.0000 Cl  0  0
   -2.8189   -2.4059    0.0000 C   0  0
   -3.6259   -2.5776    0.0000 C   0  0
   -3.8807   -3.3623    0.0000 C   0  0
   -3.3285   -3.9752    0.0000 C   0  0
   -2.5216   -3.8036    0.0000 C   0  0
   -2.2668   -3.0189    0.0000 C   0  0
   -0.7144   -0.4125    0.0000 C   0  0
    0.0000   -0.8250    0.0000 N   0  0
   -0.4742    1.9263    0.0000 H   0  0
  1  2  1  0
  2  3  2  0
  2  4  2  0
  2  5  1  0
  5  6  2  0
  6  7  1  0
  7  8  1  0
  7 16  2  0
  8  9  1  0
  8 31  1  0
  9 10  1  0
 10 11  2  0
 11 12  1  0
 12 13  2  0
 13 14  1  0
 14 15  2  0
 15 10  1  0
 16 17  1  0
 17 18  2  0
 18 19  1  0
 19 20  1  0
 19 29  1  0
 20 21  1  0
 21 22  1  0
 21 23  1  0
 23 24  2  0
 24 25  1  0
 25 26  2  0
 26 27  1  0
 27 28  2  0
 28 23  1  0
 29 16  1  0
 29 30  2  0
 30  5  1  0
M  END
> <CMPD_CHEMBLID>
CHEMBL1775043

> <STANDARD_TYPE>
Ki

> <RELATION>
=

> <STANDARD_VALUE>
2000

> <STANDARD_UNITS>
nM

> <Molecular_Weight>
441.9338

$$$$

  SciTegic11272012012D

 34 37  0  0  0  0            999 V2000
    2.1444   -0.4100    0.0000 O   0  0
    1.4302   -0.8237    0.0000 C   0  0
    1.4312   -1.3737    0.0000 O   0  0
    0.7144   -0.4125    0.0000 C   0  0
    0.7144    0.4125    0.0000 C   0  0
    0.0000    0.8250    0.0000 C   0  0
   -0.7144    0.4125    0.0000 C   0  0
   -0.7144   -0.4125    0.0000 C   0  0
    0.0000   -0.8250    0.0000 C   0  0
   -0.0017   -1.6504    0.0000 C   0  0
   -0.5740   -1.9791    0.0000 O   0  0
    0.7121   -2.0651    0.0000 N   0  0
    0.7104   -2.8906    0.0000 C   0  0
    1.4231   -3.3060    0.0000 C   0  0
    1.4198   -4.1310    0.0000 C   0  0
    0.7036   -4.5406    0.0000 C   0  0
   -0.0092   -4.1252    0.0000 C   0  0
   -0.7265   -4.5335    0.0000 N   0  0
   -1.4391   -4.1169    0.0000 C   0  0
   -2.1568   -4.5239    0.0000 N   0  0
   -2.8681   -4.1060    0.0000 C   0  0
   -2.8619   -3.2811    0.0000 C   0  0
   -2.1443   -2.8740    0.0000 C   0  0
   -1.4330   -3.2919    0.0000 N   0  0
   -2.1381   -2.0486    0.0000 C   0  0
   -2.8487   -1.6295    0.0000 C   0  0
   -2.8412   -0.8045    0.0000 C   0  0
   -2.1230   -0.3986    0.0000 C   0  0
   -1.4123   -0.8176    0.0000 N   0  0
   -1.4199   -1.6425    0.0000 C   0  0
   -0.0058   -3.3002    0.0000 C   0  0
   -0.7297   -5.0835    0.0000 H   0  0
    1.1890   -1.7912    0.0000 H   0  0
    2.6214   -0.6840    0.0000 H   0  0
  1  2  1  0
  1 34  1  0
  2  3  2  0
  2  4  1  0
  4  5  2  0
  5  6  1  0
  6  7  2  0
  7  8  1  0
  8  9  2  0
  9  4  1  0
  9 10  1  0
 10 11  2  0
 10 12  1  0
 12 13  1  0
 12 33  1  0
 13 14  2  0
 14 15  1  0
 15 16  2  0
 16 17  1  0
 17 18  1  0
 17 31  2  0
 18 19  1  0
 18 32  1  0
 19 20  2  0
 20 21  1  0
 21 22  2  0
 22 23  1  0
 23 24  2  0
 23 25  1  0
 24 19  1  0
 25 26  2  0
 26 27  1  0
 27 28  2  0
 28 29  1  0
 29 30  2  0
 30 25  1  0
 31 13  1  0
M  END
> <CMPD_CHEMBLID>
CHEMBL55742

> <STANDARD_TYPE>
IC50

> <RELATION>
=

> <STANDARD_VALUE>
2000

> <STANDARD_UNITS>
nM

> <Molecular_Weight>
411.41278

$$$$

  SciTegic11272012012D

 43 47  0  0  0  0            999 V2000
    1.2861   -0.7425    0.0000 C   0  0
    0.7144   -0.4125    0.0000 C   0  0
    0.7144    0.4125    0.0000 C   0  0
    0.0000    0.8250    0.0000 C   0  0
   -0.7144    0.4125    0.0000 C   0  0
   -1.4302    0.8237    0.0000 N   0  0
   -2.1444    0.4100    0.0000 C   0  0
   -2.8602    0.8213    0.0000 C   0  0
   -3.5747    0.4088    0.0000 C   0  0
   -4.2892    0.8213    0.0000 C   0  0
   -4.2892    1.6463    0.0000 C   0  0
   -3.5747    2.0588    0.0000 C   0  0
   -2.8602    1.6463    0.0000 C   0  0
   -5.0032    2.0604    0.0000 C   0  0
   -5.5754    1.7314    0.0000 O   0  0
   -5.0021    2.8859    0.0000 N   0  0
   -5.7161    3.3001    0.0000 C   0  0
   -6.4306    2.8876    0.0000 C   0  0
   -7.1450    3.3001    0.0000 C   0  0
   -7.1450    4.1251    0.0000 C   0  0
   -6.4306    4.5376    0.0000 C   0  0
   -5.7162    4.1251    0.0000 C   0  0
   -5.0021    4.5393    0.0000 N   0  0
   -0.7144   -0.4125    0.0000 C   0  0
    0.0000   -0.8250    0.0000 C   0  0
   -0.0017   -1.6504    0.0000 N   0  0
   -0.7171   -2.0622    0.0000 C   0  0
   -0.7201   -2.8872    0.0000 N   0  0
   -1.4359   -3.2972    0.0000 C   0  0
   -2.1490   -2.8822    0.0000 C   0  0
   -2.1461   -2.0572    0.0000 C   0  0
   -1.4302   -1.6472    0.0000 N   0  0
   -2.8595   -1.6421    0.0000 C   0  0
   -3.5761   -2.0509    0.0000 C   0  0
   -4.2885   -1.6348    0.0000 C   0  0
   -4.2843   -0.8099    0.0000 C   0  0
   -3.5678   -0.4009    0.0000 N   0  0
   -2.8554   -0.8170    0.0000 C   0  0
    0.4742   -1.9263    0.0000 H   0  0
   -5.0029    5.0893    0.0000 H   0  0
   -4.5253    4.2651    0.0000 H   0  0
   -4.5253    3.1601    0.0000 H   0  0
   -1.4312    1.3737    0.0000 H   0  0
  1  2  1  0
  2  3  2  0
  3  4  1  0
  4  5  2  0
  5  6  1  0
  5 24  1  0
  6  7  1  0
  6 43  1  0
  7  8  1  0
  8  9  2  0
  9 10  1  0
 10 11  2  0
 11 12  1  0
 11 14  1  0
 12 13  2  0
 13  8  1  0
 14 15  2  0
 14 16  1  0
 16 17  1  0
 16 42  1  0
 17 18  2  0
 18 19  1  0
 19 20  2  0
 20 21  1  0
 21 22  2  0
 22 17  1  0
 22 23  1  0
 23 40  1  0
 23 41  1  0
 24 25  2  0
 25  2  1  0
 25 26  1  0
 26 27  1  0
 26 39  1  0
 27 28  2  0
 28 29  1  0
 29 30  2  0
 30 31  1  0
 31 32  2  0
 31 33  1  0
 32 27  1  0
 33 34  2  0
 34 35  1  0
 35 36  2  0
 36 37  1  0
 37 38  2  0
 38 33  1  0
M  END
> <CMPD_CHEMBLID>
CHEMBL475796

> <STANDARD_TYPE>
IC50

> <RELATION>
=

> <STANDARD_VALUE>
2000

> <STANDARD_UNITS>
nM

> <Molecular_Weight>
501.58168

$$$$

  SciTegic11272012012D

 28 31  0  0  0  0            999 V2000
    2.2541   -3.0993    0.0000 C   0  0
    2.6435   -2.5664    0.0000 C   0  0
    3.2996   -2.6374    0.0000 C   0  0
    2.3108   -1.8125    0.0000 N   0  0
    1.5040   -1.6398    0.0000 N   0  0
    1.4293   -0.8252    0.0000 C   0  0
    0.7145   -0.4125    0.0000 C   0  0
    0.7145    0.4125    0.0000 C   0  0
    0.0000    0.8250    0.0000 C   0  0
   -0.7145    0.4125    0.0000 C   0  0
   -1.4290    0.8250    0.0000 N   0  0
   -2.1435    0.4125    0.0000 C   0  0
   -2.8592    0.8238    0.0000 N   0  0
   -2.1435   -0.4125    0.0000 C   0  0
   -1.4290   -0.8250    0.0000 C   0  0
   -0.7145   -0.4125    0.0000 C   0  0
    0.0000   -0.8250    0.0000 C   0  0
    2.1728   -0.4850    0.0000 C   0  0
    2.4289    0.2993    0.0000 C   0  0
    1.8786    0.9146    0.0000 N   0  0
    3.2361    0.4697    0.0000 N   0  0
    3.7873   -0.1443    0.0000 C   0  0
    3.5312   -0.9285    0.0000 N   0  0
    2.7239   -1.0989    0.0000 C   0  0
    2.0501    1.4372    0.0000 H   0  0
    1.3403    0.8020    0.0000 H   0  0
   -3.3351    0.5481    0.0000 H   0  0
   -2.8602    1.3738    0.0000 H   0  0
  1  2  1  0
  2  3  1  0
  2  4  1  0
  4  5  1  0
  5  6  2  0
  6  7  1  0
  6 18  1  0
  7  8  2  0
  8  9  1  0
  9 10  2  0
 10 11  1  0
 11 12  2  0
 12 13  1  0
 12 14  1  0
 13 27  1  0
 13 28  1  0
 14 15  2  0
 15 16  1  0
 16 10  1  0
 16 17  2  0
 17  7  1  0
 18 19  2  0
 19 20  1  0
 19 21  1  0
 20 25  1  0
 20 26  1  0
 21 22  2  0
 22 23  1  0
 23 24  2  0
 24  4  1  0
 24 18  1  0
M  END
> <CMPD_CHEMBLID>
CHEMBL1241949

> <STANDARD_TYPE>
IC50

> <RELATION>
=

> <STANDARD_VALUE>
2000

> <STANDARD_UNITS>
nM

> <Molecular_Weight>
319.36378

$$$$

  SciTegic11272012012D

 24 26  0  0  0  0            999 V2000
   -0.1742   -2.8725    0.0000 C   0  0
   -0.3790   -2.2450    0.0000 C   0  0
   -1.0247   -2.1088    0.0000 C   0  0
    0.1713   -1.6316    0.0000 N   0  0
    0.9918   -1.7179    0.0000 N   0  0
    1.3273   -0.9642    0.0000 C   0  0
    2.1348   -0.7925    0.0000 C   0  0
    2.7291   -1.3607    0.0000 C   0  0
    3.5209   -1.1288    0.0000 C   0  0
    3.7159   -0.3272    0.0000 C   0  0
    3.1193    0.2426    0.0000 C   0  0
    2.3275    0.0107    0.0000 C   0  0
    4.5077   -0.0936    0.0000 C   0  0
    4.6628    0.5479    0.0000 O   0  0
    4.9858   -0.5486    0.0000 C   0  0
    0.7145   -0.4125    0.0000 C   0  0
    0.7145    0.4125    0.0000 C   0  0
    1.4285    0.8267    0.0000 N   0  0
    0.0000    0.8250    0.0000 N   0  0
   -0.7145    0.4125    0.0000 C   0  0
   -0.7145   -0.4125    0.0000 N   0  0
    0.0000   -0.8250    0.0000 C   0  0
    1.4277    1.3767    0.0000 H   0  0
    1.9053    0.5525    0.0000 H   0  0
  1  2  1  0
  2  3  1  0
  2  4  1  0
  4  5  1  0
  5  6  2  0
  6  7  1  0
  6 16  1  0
  7  8  2  0
  8  9  1  0
  9 10  2  0
 10 11  1  0
 10 13  1  0
 11 12  2  0
 12  7  1  0
 13 14  2  0
 13 15  1  0
 16 17  2  0
 17 18  1  0
 17 19  1  0
 18 23  1  0
 18 24  1  0
 19 20  2  0
 20 21  1  0
 21 22  2  0
 22  4  1  0
 22 16  1  0
M  END
> <CMPD_CHEMBLID>
CHEMBL1241773

> <STANDARD_TYPE>
IC50

> <RELATION>
=

> <STANDARD_VALUE>
2000

> <STANDARD_UNITS>
nM

> <Molecular_Weight>
295.33908

$$$$

  SciTegic11272012012D

 28 32  0  0  0  0            999 V2000
    1.8786    0.9146    0.0000 N   0  0
    2.4288    0.2993    0.0000 C   0  0
    3.2361    0.4696    0.0000 N   0  0
    3.7872   -0.1443    0.0000 C   0  0
    3.5311   -0.9285    0.0000 N   0  0
    2.7239   -1.0989    0.0000 C   0  0
    2.1727   -0.4850    0.0000 C   0  0
    1.4293   -0.8252    0.0000 C   0  0
    1.5040   -1.6398    0.0000 N   0  0
    2.3107   -1.8125    0.0000 N   0  0
    2.6455   -2.5670    0.0000 C   0  0
    2.2842   -3.2979    0.0000 C   0  0
    2.8818   -3.8668    0.0000 C   0  0
    3.6074   -3.4743    0.0000 C   0  0
    3.4583   -2.6628    0.0000 C   0  0
    0.7145   -0.4125    0.0000 C   0  0
    0.7145    0.4125    0.0000 C   0  0
    0.0000    0.8250    0.0000 C   0  0
   -0.7145    0.4125    0.0000 C   0  0
   -1.4290    0.8250    0.0000 O   0  0
   -2.1434    0.4125    0.0000 C   0  0
   -2.1434   -0.4125    0.0000 C   0  0
   -1.4290   -0.8250    0.0000 C   0  0
   -1.4290   -1.4850    0.0000 O   0  0
   -0.7145   -0.4125    0.0000 C   0  0
    0.0000   -0.8250    0.0000 C   0  0
    2.0501    1.4372    0.0000 H   0  0
    1.3402    0.8020    0.0000 H   0  0
  1  2  1  0
  1 27  1  0
  1 28  1  0
  2  3  2  0
  3  4  1  0
  4  5  2  0
  5  6  1  0
  6  7  2  0
  7  2  1  0
  7  8  1  0
  8  9  2  0
  8 16  1  0
  9 10  1  0
 10  6  1  0
 10 11  1  0
 11 12  1  0
 12 13  1  0
 13 14  1  0
 14 15  1  0
 15 11  1  0
 16 17  2  0
 17 18  1  0
 18 19  2  0
 19 20  1  0
 20 21  1  0
 21 22  2  0
 22 23  1  0
 23 24  2  0
 23 25  1  0
 25 19  1  0
 25 26  2  0
 26 16  1  0
M  END
> <CMPD_CHEMBLID>
CHEMBL1242119

> <STANDARD_TYPE>
IC50

> <RELATION>
=

> <STANDARD_VALUE>
2000

> <STANDARD_UNITS>
nM

> <Molecular_Weight>
347.37058

$$$$

  SciTegic11272012012D

 26 29  0  0  0  0            999 V2000
    2.2541   -3.0993    0.0000 C   0  0
    2.6434   -2.5664    0.0000 C   0  0
    3.2996   -2.6373    0.0000 C   0  0
    2.3107   -1.8125    0.0000 N   0  0
    1.5040   -1.6398    0.0000 N   0  0
    1.4293   -0.8252    0.0000 C   0  0
    0.7145   -0.4125    0.0000 C   0  0
    0.7145    0.4125    0.0000 C   0  0
    0.0000    0.8250    0.0000 C   0  0
    0.0000    1.6500    0.0000 C   0  0
   -0.7145    2.0625    0.0000 C   0  0
   -1.4290    1.6500    0.0000 C   0  0
   -1.4290    0.8250    0.0000 C   0  0
   -0.7145    0.4125    0.0000 C   0  0
   -0.7145   -0.4125    0.0000 N   0  0
    0.0000   -0.8250    0.0000 C   0  0
    0.0000   -1.4850    0.0000 Cl  0  0
    2.1727   -0.4850    0.0000 C   0  0
    2.4288    0.2993    0.0000 C   0  0
    1.8786    0.9146    0.0000 N   0  0
    3.2361    0.4696    0.0000 N   0  0
    3.7872   -0.1443    0.0000 C   0  0
    3.5311   -0.9285    0.0000 N   0  0
    2.7239   -1.0989    0.0000 C   0  0
    2.0501    1.4372    0.0000 H   0  0
    1.3402    0.8020    0.0000 H   0  0
  1  2  1  0
  2  3  1  0
  2  4  1  0
  4  5  1  0
  5  6  2  0
  6  7  1  0
  6 18  1  0
  7  8  2  0
  8  9  1  0
  9 10  2  0
 10 11  1  0
 11 12  2  0
 12 13  1  0
 13 14  2  0
 14  9  1  0
 14 15  1  0
 15 16  2  0
 16  7  1  0
 16 17  1  0
 18 19  2  0
 19 20  1  0
 19 21  1  0
 20 25  1  0
 20 26  1  0
 21 22  2  0
 22 23  1  0
 23 24  2  0
 24  4  1  0
 24 18  1  0
M  END
> <CMPD_CHEMBLID>
CHEMBL1242663

> <STANDARD_TYPE>
IC50

> <RELATION>
=

> <STANDARD_VALUE>
2000

> <STANDARD_UNITS>
nM

> <Molecular_Weight>
338.7942

$$$$

  SciTegic11272012012D

 47 52  0  0  0  0            999 V2000
    4.1419   -3.2214    0.0000 C   0  0
    3.5703   -2.8914    0.0000 C   0  0
    2.8558   -3.3038    0.0000 C   0  0
    2.1414   -2.8913    0.0000 C   0  0
    2.1413   -2.0663    0.0000 C   0  0
    1.4273   -1.6521    0.0000 N   0  0
    1.4285   -0.8267    0.0000 C   0  0
    2.0006   -0.4977    0.0000 O   0  0
    0.7144   -0.4125    0.0000 C   0  0
    0.7144    0.4125    0.0000 C   0  0
    0.0000    0.8250    0.0000 C   0  0
   -0.7144    0.4125    0.0000 C   0  0
   -1.4986    0.6674    0.0000 C   0  0
   -1.9836    0.0000    0.0000 C   0  0
   -1.4986   -0.6674    0.0000 C   0  0
   -0.7144   -0.4125    0.0000 C   0  0
    0.0000   -0.8250    0.0000 C   0  0
   -1.7536    1.4524    0.0000 N   0  0
   -1.2506    2.1029    0.0000 C   0  0
   -1.5638    2.8661    0.0000 C   0  0
   -2.3814    2.9764    0.0000 N   0  0
   -2.8857    2.3236    0.0000 C   0  0
   -2.5725    1.5604    0.0000 C   0  0
   -2.6964    3.7394    0.0000 C   0  0
   -2.2938    4.2624    0.0000 O   0  0
   -3.5146    3.8487    0.0000 O   0  0
   -3.8295    4.6117    0.0000 C   0  0
   -4.4838    4.6990    0.0000 C   0  0
   -4.0811    5.2219    0.0000 C   0  0
   -3.4270    5.1347    0.0000 C   0  0
    2.8559   -1.6539    0.0000 C   0  0
    3.5703   -2.0664    0.0000 C   0  0
    4.2843   -1.6522    0.0000 N   0  0
    4.2832   -0.8268    0.0000 C   0  0
    4.9963   -0.4117    0.0000 N   0  0
    4.9934    0.4133    0.0000 C   0  0
    4.2775    0.8233    0.0000 C   0  0
    3.5644    0.4083    0.0000 C   0  0
    3.5673   -0.4167    0.0000 N   0  0
    2.8482    0.8186    0.0000 C   0  0
    2.8440    1.6436    0.0000 C   0  0
    2.1275    2.0525    0.0000 C   0  0
    1.4151    1.6364    0.0000 C   0  0
    1.4192    0.8114    0.0000 N   0  0
    2.1358    0.4025    0.0000 C   0  0
    4.7611   -1.9264    0.0000 H   0  0
    0.9505   -1.9263    0.0000 H   0  0
  1  2  1  0
  2  3  2  0
  3  4  1  0
  4  5  2  0
  5  6  1  0
  5 31  1  0
  6  7  1  0
  6 47  1  0
  7  8  2  0
  7  9  1  0
  9 10  2  0
 10 11  1  0
 11 12  2  0
 12 13  1  0
 13 14  1  0
 13 18  1  0
 14 15  1  0
 15 16  1  0
 16 12  1  0
 16 17  2  0
 17  9  1  0
 18 19  1  0
 19 20  1  0
 20 21  1  0
 21 22  1  0
 21 24  1  0
 22 23  1  0
 23 18  1  0
 24 25  2  0
 24 26  1  0
 26 27  1  0
 27 28  1  0
 27 29  1  0
 27 30  1  0
 31 32  2  0
 32  2  1  0
 32 33  1  0
 33 34  1  0
 33 46  1  0
 34 35  2  0
 35 36  1  0
 36 37  2  0
 37 38  1  0
 38 39  2  0
 38 40  1  0
 39 34  1  0
 40 41  2  0
 41 42  1  0
 42 43  2  0
 43 44  1  0
 44 45  2  0
 45 40  1  0
M  END
> <CMPD_CHEMBLID>
CHEMBL3690073

> <STANDARD_TYPE>
IC50

> <RELATION>
=

> <STANDARD_VALUE>
2044

> <STANDARD_UNITS>
nM

> <Molecular_Weight>
605.72926

$$$$

  SciTegic11272012012D

 28 31  0  0  0  0            999 V2000
   -2.0134   -4.5941    0.0000 C   0  0
   -2.1705   -3.9530    0.0000 O   0  0
   -1.5746   -3.3817    0.0000 C   0  0
   -0.7828   -3.6136    0.0000 C   0  0
   -0.1861   -3.0438    0.0000 C   0  0
   -0.3810   -2.2450    0.0000 C   0  0
   -1.1730   -2.0103    0.0000 C   0  0
   -1.7697   -2.5801    0.0000 C   0  0
   -2.5614   -2.3465    0.0000 O   0  0
    0.1713   -1.6316    0.0000 C   0  0
    0.9918   -1.7179    0.0000 N   0  0
    1.3273   -0.9642    0.0000 N   0  0
    2.1348   -0.7925    0.0000 C   0  0
    2.7754   -1.2969    0.0000 C   0  0
    3.4553   -0.8296    0.0000 C   0  0
    3.2211   -0.0386    0.0000 N   0  0
    2.3964   -0.0169    0.0000 C   0  0
    0.7145   -0.4125    0.0000 C   0  0
    0.7145    0.4125    0.0000 N   0  0
    0.0000    0.8250    0.0000 C   0  0
   -0.7145    0.4125    0.0000 N   0  0
   -0.7145   -0.4125    0.0000 C   0  0
   -1.4302   -0.8238    0.0000 N   0  0
    0.0000   -0.8250    0.0000 C   0  0
   -1.9062   -0.5481    0.0000 H   0  0
   -1.4312   -1.3738    0.0000 H   0  0
    3.5560    0.3977    0.0000 H   0  0
   -2.6907   -1.8119    0.0000 H   0  0
  1  2  1  0
  2  3  1  0
  3  4  2  0
  4  5  1  0
  5  6  2  0
  6  7  1  0
  6 10  1  0
  7  8  2  0
  8  3  1  0
  8  9  1  0
  9 28  1  0
 10 11  2  0
 11 12  1  0
 12 13  1  0
 12 18  1  0
 13 14  1  0
 14 15  1  0
 15 16  1  0
 16 17  1  0
 16 27  1  0
 17 13  1  0
 18 19  2  0
 19 20  1  0
 20 21  2  0
 21 22  1  0
 22 23  1  0
 22 24  2  0
 23 25  1  0
 23 26  1  0
 24 10  1  0
 24 18  1  0
M  END
> <CMPD_CHEMBLID>
CHEMBL1242288

> <STANDARD_TYPE>
IC50

> <RELATION>
=

> <STANDARD_VALUE>
2050

> <STANDARD_UNITS>
nM

> <Molecular_Weight>
326.35312

$$$$

  SciTegic11272012012D

 25 28  0  0  0  0            999 V2000
    2.2541   -3.0993    0.0000 C   0  0
    2.6435   -2.5664    0.0000 C   0  0
    3.2996   -2.6374    0.0000 C   0  0
    2.3108   -1.8125    0.0000 N   0  0
    1.5040   -1.6398    0.0000 N   0  0
    1.4293   -0.8252    0.0000 C   0  0
    0.7145   -0.4125    0.0000 C   0  0
    0.7145    0.4125    0.0000 C   0  0
    0.0000    0.8250    0.0000 C   0  0
   -0.7145    0.4125    0.0000 C   0  0
   -1.4290    0.8250    0.0000 C   0  0
   -2.1435    0.4125    0.0000 C   0  0
   -2.1435   -0.4125    0.0000 N   0  0
   -1.4290   -0.8250    0.0000 C   0  0
   -0.7145   -0.4125    0.0000 C   0  0
    0.0000   -0.8250    0.0000 C   0  0
    2.1728   -0.4850    0.0000 C   0  0
    2.4289    0.2993    0.0000 C   0  0
    1.8786    0.9146    0.0000 N   0  0
    3.2361    0.4697    0.0000 N   0  0
    3.7873   -0.1443    0.0000 C   0  0
    3.5312   -0.9285    0.0000 N   0  0
    2.7239   -1.0989    0.0000 C   0  0
    2.0501    1.4372    0.0000 H   0  0
    1.3403    0.8020    0.0000 H   0  0
  1  2  1  0
  2  3  1  0
  2  4  1  0
  4  5  1  0
  5  6  2  0
  6  7  1  0
  6 17  1  0
  7  8  2  0
  8  9  1  0
  9 10  2  0
 10 11  1  0
 11 12  2  0
 12 13  1  0
 13 14  2  0
 14 15  1  0
 15 10  1  0
 15 16  2  0
 16  7  1  0
 17 18  2  0
 18 19  1  0
 18 20  1  0
 19 24  1  0
 19 25  1  0
 20 21  2  0
 21 22  1  0
 22 23  2  0
 23  4  1  0
 23 17  1  0
M  END
> <CMPD_CHEMBLID>
CHEMBL1242208

> <STANDARD_TYPE>
IC50

> <RELATION>
=

> <STANDARD_VALUE>
2100

> <STANDARD_UNITS>
nM

> <Molecular_Weight>
304.34914

$$$$

  SciTegic11272012012D

 28 31  0  0  0  0            999 V2000
   -2.2201   -5.3606    0.0000 F   0  0
   -1.7784   -4.8702    0.0000 C   0  0
   -0.9714   -5.0419    0.0000 C   0  0
   -0.4193   -4.4289    0.0000 C   0  0
   -0.6741   -3.6442    0.0000 C   0  0
   -1.4810   -3.4726    0.0000 C   0  0
   -2.0332   -4.0855    0.0000 C   0  0
   -0.1229   -3.0297    0.0000 C   0  0
    0.5229   -3.1659    0.0000 Cl  0  0
   -0.3789   -2.2450    0.0000 C   0  0
    0.1713   -1.6316    0.0000 N   0  0
    0.9918   -1.7178    0.0000 N   0  0
    1.3273   -0.9641    0.0000 C   0  0
    0.7144   -0.4125    0.0000 C   0  0
    0.7144    0.4125    0.0000 C   0  0
    1.4285    0.8267    0.0000 N   0  0
    1.4273    1.6521    0.0000 C   0  0
    2.1413    2.0663    0.0000 C   0  0
    2.1413    2.8914    0.0000 C   0  0
    2.8558    3.3039    0.0000 C   0  0
    3.5703    2.8914    0.0000 C   0  0
    3.5703    2.0664    0.0000 C   0  0
    2.8559    1.6539    0.0000 N   0  0
    0.0000    0.8250    0.0000 N   0  0
   -0.7144    0.4125    0.0000 C   0  0
   -0.7144   -0.4125    0.0000 N   0  0
    0.0000   -0.8250    0.0000 C   0  0
    1.9052    0.5525    0.0000 H   0  0
  1  2  1  0
  2  3  2  0
  3  4  1  0
  4  5  2  0
  5  6  1  0
  5  8  1  0
  6  7  2  0
  7  2  1  0
  8  9  1  0
  8 10  1  0
 10 11  1  0
 11 12  1  0
 12 13  2  0
 13 14  1  0
 14 15  2  0
 15 16  1  0
 15 24  1  0
 16 17  1  0
 16 28  1  0
 17 18  1  0
 18 19  2  0
 19 20  1  0
 20 21  2  0
 21 22  1  0
 22 23  2  0
 23 18  1  0
 24 25  2  0
 25 26  1  0
 26 27  2  0
 27 11  1  0
 27 14  1  0
M  END
> <CMPD_CHEMBLID>
CHEMBL1773092

> <STANDARD_TYPE>
Ki

> <RELATION>
=

> <STANDARD_VALUE>
2100

> <STANDARD_UNITS>
nM

> <Molecular_Weight>
382.82194

$$$$

  SciTegic11272012012D

 26 28  0  0  0  0            999 V2000
   -2.4505   -5.2116    0.0000 C   0  0
   -1.9741   -4.7548    0.0000 C   0  0
   -2.1705   -3.9530    0.0000 O   0  0
   -1.5746   -3.3817    0.0000 C   0  0
   -0.7828   -3.6136    0.0000 C   0  0
   -0.1861   -3.0438    0.0000 C   0  0
   -0.3810   -2.2450    0.0000 C   0  0
   -1.1730   -2.0103    0.0000 C   0  0
   -1.7697   -2.5801    0.0000 C   0  0
   -2.5614   -2.3465    0.0000 O   0  0
   -2.7166   -1.7050    0.0000 C   0  0
    0.1713   -1.6316    0.0000 C   0  0
    0.9918   -1.7179    0.0000 N   0  0
    1.3273   -0.9642    0.0000 N   0  0
    2.1337   -0.7943    0.0000 C   0  0
    2.5748   -1.2854    0.0000 C   0  0
    2.3387   -0.1669    0.0000 C   0  0
    0.7145   -0.4125    0.0000 C   0  0
    0.7145    0.4125    0.0000 N   0  0
    0.0000    0.8250    0.0000 C   0  0
   -0.7145    0.4125    0.0000 N   0  0
   -0.7145   -0.4125    0.0000 C   0  0
   -1.4302   -0.8238    0.0000 N   0  0
    0.0000   -0.8250    0.0000 C   0  0
   -1.9062   -0.5481    0.0000 H   0  0
   -1.4312   -1.3738    0.0000 H   0  0
  1  2  1  0
  2  3  1  0
  3  4  1  0
  4  5  2  0
  5  6  1  0
  6  7  2  0
  7  8  1  0
  7 12  1  0
  8  9  2  0
  9  4  1  0
  9 10  1  0
 10 11  1  0
 12 13  2  0
 13 14  1  0
 14 15  1  0
 14 18  1  0
 15 16  1  0
 15 17  1  0
 18 19  2  0
 19 20  1  0
 20 21  2  0
 21 22  1  0
 22 23  1  0
 22 24  2  0
 23 25  1  0
 23 26  1  0
 24 12  1  0
 24 18  1  0
M  END
> <CMPD_CHEMBLID>
CHEMBL1242472

> <STANDARD_TYPE>
IC50

> <RELATION>
=

> <STANDARD_VALUE>
2100

> <STANDARD_UNITS>
nM

> <Molecular_Weight>
327.38094

$$$$

  SciTegic11272012012D

 32 35  0  0  0  0            999 V2000
    1.4302   -0.8237    0.0000 O   0  0
    0.7144   -0.4125    0.0000 C   0  0
    0.7144    0.4125    0.0000 C   0  0
    0.0000    0.8250    0.0000 C   0  0
   -0.0017    1.6504    0.0000 O   0  0
   -0.7171    2.0622    0.0000 C   0  0
   -0.7188    2.8876    0.0000 C   0  0
   -0.1478    3.2186    0.0000 O   0  0
   -1.4343    3.2993    0.0000 N   0  0
   -1.4360    4.1248    0.0000 C   0  0
   -0.7215    4.5373    0.0000 N   0  0
   -0.7216    5.3623    0.0000 C   0  0
   -1.4361    5.7748    0.0000 C   0  0
   -2.1505    5.3623    0.0000 C   0  0
   -2.1505    4.5373    0.0000 C   0  0
   -2.7221    4.2073    0.0000 F   0  0
   -0.7144    0.4125    0.0000 C   0  0
   -0.7144   -0.4125    0.0000 C   0  0
   -1.4290   -0.8250    0.0000 O   0  0
   -1.4290   -1.6500    0.0000 C   0  0
   -0.7144   -2.0625    0.0000 C   0  0
    0.0000   -1.6500    0.0000 C   0  0
    0.5716   -1.9800    0.0000 O   0  0
    0.0000   -0.8250    0.0000 C   0  0
   -2.1437   -2.0627    0.0000 C   0  0
   -2.8590   -1.6514    0.0000 C   0  0
   -3.5727   -2.0650    0.0000 C   0  0
   -3.5714   -2.8900    0.0000 C   0  0
   -2.8563   -3.3014    0.0000 C   0  0
   -2.1425   -2.8878    0.0000 C   0  0
   -1.9101    3.0235    0.0000 H   0  0
    1.9061   -0.5481    0.0000 H   0  0
  1  2  1  0
  1 32  1  0
  2  3  2  0
  3  4  1  0
  4  5  1  0
  4 17  2  0
  5  6  1  0
  6  7  1  0
  7  8  2  0
  7  9  1  0
  9 10  1  0
  9 31  1  0
 10 11  2  0
 11 12  1  0
 12 13  2  0
 13 14  1  0
 14 15  2  0
 15 10  1  0
 15 16  1  0
 17 18  1  0
 18 19  1  0
 19 20  1  0
 20 21  2  0
 20 25  1  0
 21 22  1  0
 22 23  2  0
 22 24  1  0
 24  2  1  0
 24 18  2  0
 25 26  2  0
 26 27  1  0
 27 28  2  0
 28 29  1  0
 29 30  2  0
 30 25  1  0
M  END
> <CMPD_CHEMBLID>
CHEMBL2408498

> <STANDARD_TYPE>
IC50

> <RELATION>
=

> <STANDARD_VALUE>
2170

> <STANDARD_UNITS>
nM

> <Molecular_Weight>
406.3633

$$$$

  SciTegic11272012012D

 25 28  0  0  0  0            999 V2000
    2.2541   -3.0993    0.0000 C   0  0
    2.6435   -2.5664    0.0000 C   0  0
    3.2996   -2.6374    0.0000 C   0  0
    2.3108   -1.8125    0.0000 N   0  0
    1.5040   -1.6398    0.0000 N   0  0
    1.4293   -0.8252    0.0000 C   0  0
    0.7145   -0.4125    0.0000 C   0  0
    0.7145    0.4125    0.0000 C   0  0
    0.0000    0.8250    0.0000 C   0  0
   -0.7145    0.4125    0.0000 C   0  0
   -1.4290    0.8250    0.0000 N   0  0
   -2.1435    0.4125    0.0000 C   0  0
   -2.1435   -0.4125    0.0000 C   0  0
   -1.4290   -0.8250    0.0000 N   0  0
   -0.7145   -0.4125    0.0000 C   0  0
    0.0000   -0.8250    0.0000 C   0  0
    2.1728   -0.4850    0.0000 C   0  0
    2.4289    0.2993    0.0000 C   0  0
    1.8786    0.9146    0.0000 N   0  0
    3.2361    0.4697    0.0000 N   0  0
    3.7873   -0.1443    0.0000 C   0  0
    3.5312   -0.9285    0.0000 N   0  0
    2.7239   -1.0989    0.0000 C   0  0
    2.0501    1.4372    0.0000 H   0  0
    1.3403    0.8020    0.0000 H   0  0
  1  2  1  0
  2  3  1  0
  2  4  1  0
  4  5  1  0
  5  6  2  0
  6  7  1  0
  6 17  1  0
  7  8  2  0
  8  9  1  0
  9 10  2  0
 10 11  1  0
 11 12  2  0
 12 13  1  0
 13 14  2  0
 14 15  1  0
 15 10  1  0
 15 16  2  0
 16  7  1  0
 17 18  2  0
 18 19  1  0
 18 20  1  0
 19 24  1  0
 19 25  1  0
 20 21  2  0
 21 22  1  0
 22 23  2  0
 23  4  1  0
 23 17  1  0
M  END
> <CMPD_CHEMBLID>
CHEMBL1241774

> <STANDARD_TYPE>
IC50

> <RELATION>
=

> <STANDARD_VALUE>
2200

> <STANDARD_UNITS>
nM

> <Molecular_Weight>
305.3372

$$$$

  SciTegic11272012012D

 27 31  0  0  0  0            999 V2000
    1.4302   -0.8238    0.0000 N   0  0
    0.7145   -0.4125    0.0000 C   0  0
    0.7145    0.4125    0.0000 N   0  0
    0.0000    0.8250    0.0000 C   0  0
   -0.7145    0.4125    0.0000 N   0  0
   -0.7145   -0.4125    0.0000 C   0  0
    0.0000   -0.8250    0.0000 C   0  0
   -0.1713   -1.6316    0.0000 C   0  0
   -0.9918   -1.7178    0.0000 N   0  0
   -1.3273   -0.9642    0.0000 N   0  0
   -2.1348   -0.7925    0.0000 C   0  0
   -2.7754   -1.2969    0.0000 C   0  0
   -3.4553   -0.8297    0.0000 C   0  0
   -3.2211   -0.0386    0.0000 C   0  0
   -2.3964   -0.0169    0.0000 C   0  0
    0.3811   -2.2450    0.0000 C   0  0
    1.1730   -2.0103    0.0000 C   0  0
    1.7697   -2.5800    0.0000 C   0  0
    1.5746   -3.3817    0.0000 C   0  0
    0.7829   -3.6136    0.0000 C   0  0
    0.4258   -4.3568    0.0000 N   0  0
   -0.3919   -4.2466    0.0000 C   0  0
   -0.5397   -3.4349    0.0000 C   0  0
    0.1862   -3.0438    0.0000 C   0  0
    0.6867   -4.8409    0.0000 H   0  0
    1.9062   -0.5481    0.0000 H   0  0
    1.4312   -1.3738    0.0000 H   0  0
  1  2  1  0
  1 26  1  0
  1 27  1  0
  2  3  2  0
  3  4  1  0
  4  5  2  0
  5  6  1  0
  6  7  2  0
  7  2  1  0
  7  8  1  0
  8  9  2  0
  8 16  1  0
  9 10  1  0
 10  6  1  0
 10 11  1  0
 11 12  1  0
 12 13  1  0
 13 14  1  0
 14 15  1  0
 15 11  1  0
 16 17  2  0
 17 18  1  0
 18 19  2  0
 19 20  1  0
 20 21  1  0
 21 22  1  0
 21 25  1  0
 22 23  2  0
 23 24  1  0
 24 16  1  0
 24 20  2  0
M  END
> <CMPD_CHEMBLID>
CHEMBL1242758

> <STANDARD_TYPE>
IC50

> <RELATION>
=

> <STANDARD_VALUE>
2200

> <STANDARD_UNITS>
nM

> <Molecular_Weight>
318.37572

$$$$

  SciTegic11272012012D

 26 29  0  0  0  0            999 V2000
    2.2541   -3.0993    0.0000 C   0  0
    2.6435   -2.5664    0.0000 C   0  0
    3.2996   -2.6374    0.0000 C   0  0
    2.3108   -1.8125    0.0000 N   0  0
    1.5040   -1.6398    0.0000 N   0  0
    1.4293   -0.8252    0.0000 C   0  0
    0.7145   -0.4125    0.0000 C   0  0
    0.7145    0.4125    0.0000 C   0  0
    0.0000    0.8250    0.0000 C   0  0
   -0.7145    0.4125    0.0000 C   0  0
   -1.4290    0.8250    0.0000 O   0  0
   -2.1435    0.4125    0.0000 C   0  0
   -2.1435   -0.4125    0.0000 C   0  0
   -1.4290   -0.8250    0.0000 C   0  0
   -1.4290   -1.4850    0.0000 O   0  0
   -0.7145   -0.4125    0.0000 C   0  0
    0.0000   -0.8250    0.0000 C   0  0
    2.1728   -0.4850    0.0000 C   0  0
    2.4289    0.2993    0.0000 C   0  0
    1.8786    0.9146    0.0000 N   0  0
    3.2361    0.4697    0.0000 N   0  0
    3.7873   -0.1443    0.0000 C   0  0
    3.5312   -0.9285    0.0000 N   0  0
    2.7239   -1.0989    0.0000 C   0  0
    2.0501    1.4372    0.0000 H   0  0
    1.3403    0.8020    0.0000 H   0  0
  1  2  1  0
  2  3  1  0
  2  4  1  0
  4  5  1  0
  5  6  2  0
  6  7  1  0
  6 18  1  0
  7  8  2  0
  8  9  1  0
  9 10  2  0
 10 11  1  0
 11 12  1  0
 12 13  2  0
 13 14  1  0
 14 15  2  0
 14 16  1  0
 16 10  1  0
 16 17  2  0
 17  7  1  0
 18 19  2  0
 19 20  1  0
 19 21  1  0
 20 25  1  0
 20 26  1  0
 21 22  2  0
 22 23  1  0
 23 24  2  0
 24  4  1  0
 24 18  1  0
M  END
> <CMPD_CHEMBLID>
CHEMBL1242118

> <STANDARD_TYPE>
IC50

> <RELATION>
=

> <STANDARD_VALUE>
2200

> <STANDARD_UNITS>
nM

> <Molecular_Weight>
321.3333

$$$$

  SciTegic11272012012D

 33 35  0  0  0  0            999 V2000
    2.0013   -0.4930    0.0000 C   0  0
    1.4302   -0.8237    0.0000 O   0  0
    0.7144   -0.4125    0.0000 C   0  0
    0.7144    0.4125    0.0000 C   0  0
    0.0000    0.8250    0.0000 C   0  0
    0.0000    1.6500    0.0000 N   0  0
   -0.7145    2.0625    0.0000 C   0  0
   -1.4290    1.6500    0.0000 N   0  0
   -1.4290    0.8250    0.0000 C   0  0
   -2.1447    0.4137    0.0000 N   0  0
   -2.8590    0.8275    0.0000 C   0  0
   -3.5749    0.4174    0.0000 C   0  0
   -4.2879    0.8324    0.0000 C   0  0
   -4.2851    1.6574    0.0000 C   0  0
   -4.8555    1.9894    0.0000 F   0  0
   -3.5692    2.0675    0.0000 C   0  0
   -3.5669    2.7274    0.0000 Cl  0  0
   -2.8561    1.6525    0.0000 C   0  0
   -0.7144    0.4125    0.0000 C   0  0
   -0.7144   -0.4125    0.0000 C   0  0
    0.0000   -0.8250    0.0000 C   0  0
   -0.0017   -1.6504    0.0000 N   0  0
   -0.7171   -2.0622    0.0000 C   0  0
   -1.2882   -1.7312    0.0000 O   0  0
   -0.7188   -2.8876    0.0000 C   0  0
   -1.4343   -3.2993    0.0000 C   0  0
   -1.4360   -4.1248    0.0000 C   0  0
   -2.1514   -4.5365    0.0000 N   0  0
   -2.1528   -5.1965    0.0000 C   0  0
   -2.7224   -4.2055    0.0000 C   0  0
   -0.1478   -3.2186    0.0000 F   0  0
    0.4742   -1.9263    0.0000 H   0  0
   -2.1456   -0.1363    0.0000 H   0  0
  1  2  1  0
  2  3  1  0
  3  4  2  0
  4  5  1  0
  5  6  2  0
  6  7  1  0
  7  8  2  0
  8  9  1  0
  9 10  1  0
  9 19  2  0
 10 11  1  0
 10 33  1  0
 11 12  2  0
 12 13  1  0
 13 14  2  0
 14 15  1  0
 14 16  1  0
 16 17  1  0
 16 18  2  0
 18 11  1  0
 19  5  1  0
 19 20  1  0
 20 21  2  0
 21  3  1  0
 21 22  1  0
 22 23  1  0
 22 32  1  0
 23 24  2  0
 23 25  1  0
 25 26  2  0
 25 31  1  0
 26 27  1  0
 27 28  1  0
 28 29  1  0
 28 30  1  0
M  END
> <CMPD_CHEMBLID>
CHEMBL3357634

> <STANDARD_TYPE>
IC50

> <RELATION>
=

> <STANDARD_VALUE>
2262

> <STANDARD_UNITS>
nM

> <Molecular_Weight>
447.86561

$$$$

  SciTegic11272012012D

 32 35  0  0  0  0            999 V2000
    1.4302   -0.8237    0.0000 O   0  0
    0.7144   -0.4125    0.0000 C   0  0
    0.7144    0.4125    0.0000 C   0  0
    0.0000    0.8250    0.0000 C   0  0
   -0.0017    1.6504    0.0000 O   0  0
   -0.7171    2.0622    0.0000 C   0  0
   -0.7188    2.8876    0.0000 C   0  0
   -0.1478    3.2186    0.0000 O   0  0
   -1.4343    3.2993    0.0000 N   0  0
   -1.4360    4.1248    0.0000 C   0  0
   -2.1515    4.5365    0.0000 C   0  0
   -2.1544    5.3615    0.0000 C   0  0
   -2.8703    5.7715    0.0000 C   0  0
   -3.5833    5.3566    0.0000 C   0  0
   -3.5804    4.5316    0.0000 C   0  0
   -2.8646    4.1215    0.0000 C   0  0
   -0.7144    0.4125    0.0000 C   0  0
   -0.7144   -0.4125    0.0000 C   0  0
   -1.4290   -0.8250    0.0000 O   0  0
   -1.4290   -1.6500    0.0000 C   0  0
   -0.7144   -2.0625    0.0000 C   0  0
    0.0000   -1.6500    0.0000 C   0  0
    0.5716   -1.9800    0.0000 O   0  0
    0.0000   -0.8250    0.0000 C   0  0
   -2.1437   -2.0627    0.0000 C   0  0
   -2.8590   -1.6514    0.0000 C   0  0
   -3.5727   -2.0650    0.0000 C   0  0
   -3.5714   -2.8900    0.0000 C   0  0
   -2.8563   -3.3014    0.0000 C   0  0
   -2.1425   -2.8878    0.0000 C   0  0
   -1.9101    3.0235    0.0000 H   0  0
    1.9061   -0.5481    0.0000 H   0  0
  1  2  1  0
  1 32  1  0
  2  3  2  0
  3  4  1  0
  4  5  1  0
  4 17  2  0
  5  6  1  0
  6  7  1  0
  7  8  2  0
  7  9  1  0
  9 10  1  0
  9 31  1  0
 10 11  1  0
 11 12  2  0
 12 13  1  0
 13 14  2  0
 14 15  1  0
 15 16  2  0
 16 11  1  0
 17 18  1  0
 18 19  1  0
 19 20  1  0
 20 21  2  0
 20 25  1  0
 21 22  1  0
 22 23  2  0
 22 24  1  0
 24  2  1  0
 24 18  2  0
 25 26  2  0
 26 27  1  0
 27 28  2  0
 28 29  1  0
 29 30  2  0
 30 25  1  0
M  END
> <CMPD_CHEMBLID>
CHEMBL2408505

> <STANDARD_TYPE>
IC50

> <RELATION>
=

> <STANDARD_VALUE>
2270

> <STANDARD_UNITS>
nM

> <Molecular_Weight>
401.41136

$$$$

  SciTegic11272012012D

 40 43  0  0  0  0            999 V2000
    1.4276   -1.4867    0.0000 C   0  0
    1.4285   -0.8267    0.0000 C   0  0
    0.7144   -0.4125    0.0000 N   0  0
    0.7144    0.4125    0.0000 C   0  0
    0.0000    0.8250    0.0000 C   0  0
   -0.7144    0.4125    0.0000 N   0  0
   -0.7144   -0.4125    0.0000 C   0  0
    0.0000   -0.8250    0.0000 C   0  0
   -1.4293    0.8252    0.0000 C   0  0
   -1.4307    1.6502    0.0000 C   0  0
   -2.1458    2.0616    0.0000 C   0  0
   -2.8596    1.6480    0.0000 C   0  0
   -3.5760    2.0581    0.0000 N   0  0
   -4.2896    1.6432    0.0000 C   0  0
   -5.0061    2.0520    0.0000 C   0  0
   -5.7186    1.6359    0.0000 C   0  0
   -5.7144    0.8110    0.0000 N   0  0
   -4.9978    0.4020    0.0000 C   0  0
   -4.2855    0.8182    0.0000 N   0  0
   -6.4363    2.0436    0.0000 N   0  0
   -6.4408    2.7036    0.0000 C   0  0
   -7.1485    1.6262    0.0000 C   0  0
   -7.1441    0.9662    0.0000 O   0  0
   -7.8663    2.0338    0.0000 N   0  0
   -8.5784    1.6165    0.0000 C   0  0
   -9.2965    2.0229    0.0000 C   0  0
   -9.3021    2.6828    0.0000 Cl  0  0
  -10.0074    1.6043    0.0000 C   0  0
  -10.7266    2.0095    0.0000 O   0  0
  -11.2948    1.6738    0.0000 C   0  0
  -10.0004    0.7793    0.0000 C   0  0
   -9.2824    0.3730    0.0000 C   0  0
   -9.2771   -0.4525    0.0000 O   0  0
   -9.8463   -0.7866    0.0000 C   0  0
   -8.5715    0.7915    0.0000 C   0  0
   -7.9971    0.4664    0.0000 Cl  0  0
   -2.8583    0.8230    0.0000 C   0  0
   -2.1432    0.4116    0.0000 C   0  0
   -7.8700    2.5838    0.0000 H   0  0
   -3.5778    2.6081    0.0000 H   0  0
  1  2  1  0
  2  3  1  0
  3  4  1  0
  4  5  1  0
  5  6  1  0
  6  7  1  0
  6  9  1  0
  7  8  1  0
  8  3  1  0
  9 10  2  0
 10 11  1  0
 11 12  2  0
 12 13  1  0
 12 37  1  0
 13 14  1  0
 13 40  1  0
 14 15  2  0
 15 16  1  0
 16 17  2  0
 16 20  1  0
 17 18  1  0
 18 19  2  0
 19 14  1  0
 20 21  1  0
 20 22  1  0
 22 23  2  0
 22 24  1  0
 24 25  1  0
 24 39  1  0
 25 26  2  0
 26 27  1  0
 26 28  1  0
 28 29  1  0
 28 31  2  0
 29 30  1  0
 31 32  1  0
 32 33  1  0
 32 35  2  0
 33 34  1  0
 35 25  1  0
 35 36  1  0
 37 38  2  0
 38  9  1  0
M  END
> <CMPD_CHEMBLID>
CHEMBL1834657

> <STANDARD_TYPE>
IC50

> <RELATION>
=

> <STANDARD_VALUE>
2300

> <STANDARD_UNITS>
nM

> <Molecular_Weight>
560.47544

$$$$

  SciTegic11272012012D

 24 26  0  0  0  0            999 V2000
    2.5619   -3.0003    0.0000 C   0  0
    2.2308   -2.4294    0.0000 O   0  0
    1.4053   -2.4306    0.0000 C   0  0
    0.9918   -1.7178    0.0000 C   0  0
    1.3273   -0.9642    0.0000 C   0  0
    0.7145   -0.4125    0.0000 C   0  0
    0.7145    0.4125    0.0000 C   0  0
    0.0000    0.8250    0.0000 C   0  0
   -0.0017    1.6505    0.0000 N   0  0
   -0.7172    2.0622    0.0000 C   0  0
   -1.2882    1.7312    0.0000 O   0  0
   -0.7189    2.8876    0.0000 C   0  0
   -0.0044    3.3002    0.0000 C   0  0
   -0.0044    4.1252    0.0000 C   0  0
   -0.7189    4.5377    0.0000 C   0  0
   -1.4334    4.1252    0.0000 C   0  0
   -1.4334    3.3002    0.0000 C   0  0
   -2.0049    2.9702    0.0000 Br  0  0
   -0.7145    0.4125    0.0000 C   0  0
   -0.7145   -0.4125    0.0000 N   0  0
    0.0000   -0.8250    0.0000 C   0  0
    0.1713   -1.6316    0.0000 N   0  0
   -0.1967   -2.0403    0.0000 H   0  0
    0.4741    1.9263    0.0000 H   0  0
  1  2  1  0
  2  3  1  0
  3  4  1  0
  4  5  2  0
  5  6  1  0
  6  7  2  0
  7  8  1  0
  8  9  1  0
  8 19  2  0
  9 10  1  0
  9 24  1  0
 10 11  2  0
 10 12  1  0
 12 13  2  0
 13 14  1  0
 14 15  2  0
 15 16  1  0
 16 17  2  0
 17 12  1  0
 17 18  1  0
 19 20  1  0
 20 21  2  0
 21  6  1  0
 21 22  1  0
 22  4  1  0
 22 23  1  0
M  END
> <CMPD_CHEMBLID>
CHEMBL3347650

> <STANDARD_TYPE>
IC50

> <RELATION>
=

> <STANDARD_VALUE>
2300

> <STANDARD_UNITS>
nM

> <Molecular_Weight>
360.20526

$$$$

  SciTegic11272012012D

 41 45  0  0  0  0            999 V2000
    1.4302   -0.8237    0.0000 N   0  0
    0.7144   -0.4125    0.0000 C   0  0
    0.7144    0.4125    0.0000 N   0  0
    0.0000    0.8250    0.0000 C   0  0
   -0.7144    0.4125    0.0000 N   0  0
   -0.7144   -0.4125    0.0000 C   0  0
    0.0000   -0.8250    0.0000 C   0  0
   -0.1713   -1.6316    0.0000 C   0  0
   -0.9918   -1.7178    0.0000 N   0  0
   -1.3273   -0.9641    0.0000 N   0  0
   -2.1347   -0.7924    0.0000 C   0  0
   -2.7290   -1.3607    0.0000 C   0  0
   -3.5207   -1.1288    0.0000 C   0  0
   -3.7158   -0.3272    0.0000 C   0  0
   -3.1192    0.2425    0.0000 C   0  0
   -2.3275    0.0107    0.0000 C   0  0
   -3.3144    1.0446    0.0000 C   0  0
   -2.7767    1.6610    0.0000 C   0  0
   -3.2088    2.3638    0.0000 N   0  0
   -4.0107    2.1699    0.0000 N   0  0
   -4.0743    1.3474    0.0000 N   0  0
   -4.7737    0.9119    0.0000 C   0  0
   -5.5022    1.3001    0.0000 C   0  0
   -6.2029    0.8638    0.0000 C   0  0
   -6.9314    1.2520    0.0000 C   0  0
   -7.6321    0.8156    0.0000 C   0  0
   -8.3605    1.2038    0.0000 C   0  0
   -8.3827    1.8634    0.0000 O   0  0
   -9.0612    0.7675    0.0000 N   0  0
   -9.7897    1.1557    0.0000 O   0  0
    0.3811   -2.2449    0.0000 C   0  0
    1.1959   -2.1344    0.0000 C   0  0
    1.7002   -2.7873    0.0000 C   0  0
    1.3870   -3.5505    0.0000 C   0  0
    1.7905   -4.0728    0.0000 Cl  0  0
    0.5694   -3.6609    0.0000 C   0  0
    0.0651   -3.0080    0.0000 C   0  0
  -10.2566    0.8650    0.0000 H   0  0
   -9.0427    0.2179    0.0000 H   0  0
    1.9061   -0.5481    0.0000 H   0  0
    1.4311   -1.3737    0.0000 H   0  0
  1  2  1  0
  1 40  1  0
  1 41  1  0
  2  3  2  0
  3  4  1  0
  4  5  2  0
  5  6  1  0
  6  7  2  0
  7  2  1  0
  7  8  1  0
  8  9  2  0
  8 31  1  0
  9 10  1  0
 10  6  1  0
 10 11  1  0
 11 12  2  0
 12 13  1  0
 13 14  2  0
 14 15  1  0
 15 16  2  0
 15 17  1  0
 16 11  1  0
 17 18  2  0
 18 19  1  0
 19 20  2  0
 20 21  1  0
 21 17  1  0
 21 22  1  0
 22 23  1  0
 23 24  1  0
 24 25  1  0
 25 26  1  0
 26 27  1  0
 27 28  2  0
 27 29  1  0
 29 30  1  0
 29 39  1  0
 30 38  1  0
 31 32  2  0
 32 33  1  0
 33 34  2  0
 34 35  1  0
 34 36  1  0
 36 37  2  0
 37 31  1  0
M  END
> <CMPD_CHEMBLID>
CHEMBL2408778

> <STANDARD_TYPE>
Ki

> <RELATION>
=

> <STANDARD_VALUE>
2350

> <STANDARD_UNITS>
nM

> <Molecular_Weight>
517.97016

$$$$

  SciTegic11272012012D

 38 43  0  0  0  0            999 V2000
   -0.4142   -8.1933    0.0000 O   0  0
   -0.6064   -7.3905    0.0000 C   0  0
   -1.2392   -7.2029    0.0000 O   0  0
   -0.0077   -6.8222    0.0000 C   0  0
   -0.2000   -6.0195    0.0000 N   0  0
    0.3976   -5.4507    0.0000 C   0  0
    0.2038   -4.6487    0.0000 C   0  0
   -0.5876   -4.4156    0.0000 N   0  0
   -1.1852   -4.9844    0.0000 C   0  0
   -0.9914   -5.7863    0.0000 C   0  0
   -0.7828   -3.6135    0.0000 C   0  0
   -0.1861   -3.0438    0.0000 C   0  0
   -0.3810   -2.2450    0.0000 C   0  0
   -1.1730   -2.0103    0.0000 C   0  0
   -1.7696   -2.5801    0.0000 C   0  0
   -1.5746   -3.3817    0.0000 N   0  0
    0.1713   -1.6316    0.0000 C   0  0
    0.9918   -1.7178    0.0000 C   0  0
    1.3273   -0.9642    0.0000 N   0  0
    0.7145   -0.4125    0.0000 C   0  0
    0.7145    0.4125    0.0000 C   0  0
    0.0000    0.8250    0.0000 C   0  0
   -0.7145    0.4125    0.0000 C   0  0
   -0.7145   -0.4125    0.0000 N   0  0
    0.0000   -0.8250    0.0000 N   0  0
   -1.4293    0.8252    0.0000 N   0  0
   -2.1721    0.4825    0.0000 C   0  0
   -2.7251    1.0947    0.0000 C   0  0
   -2.3137    1.8098    0.0000 C   0  0
   -1.5065    1.6396    0.0000 C   0  0
   -0.8906    2.1892    0.0000 C   0  0
   -0.0920    1.9941    0.0000 C   0  0
    0.4779    2.5906    0.0000 C   0  0
    0.2463    3.3824    0.0000 C   0  0
   -0.5553    3.5777    0.0000 C   0  0
   -0.7406    4.2112    0.0000 F   0  0
   -1.1252    2.9813    0.0000 C   0  0
   -0.8131   -8.5719    0.0000 H   0  0
  1  2  1  0
  1 38  1  0
  2  3  2  0
  2  4  1  0
  4  5  1  0
  5  6  1  0
  6  7  1  0
  7  8  1  0
  8  9  1  0
  8 11  1  0
  9 10  1  0
 10  5  1  0
 11 12  2  0
 12 13  1  0
 13 14  2  0
 13 17  1  0
 14 15  1  0
 15 16  2  0
 16 11  1  0
 17 18  2  0
 18 19  1  0
 19 20  2  0
 20 21  1  0
 21 22  2  0
 22 23  1  0
 23 24  2  0
 23 26  1  0
 24 25  1  0
 25 17  1  0
 25 20  1  0
 26 27  1  0
 27 28  1  0
 28 29  1  0
 29 30  1  0
 30 26  1  0
 30 31  1  0
 31 32  2  0
 32 33  1  0
 33 34  2  0
 34 35  1  0
 35 36  1  0
 35 37  2  0
 37 31  1  0
M  END
> <CMPD_CHEMBLID>
CHEMBL3582441

> <STANDARD_TYPE>
IC50

> <RELATION>
=

> <STANDARD_VALUE>
2400

> <STANDARD_UNITS>
nM

> <Molecular_Weight>
501.55532

$$$$

  SciTegic11272012012D

 26 29  0  0  0  0            999 V2000
    1.2861   -0.7425    0.0000 Br  0  0
    0.7145   -0.4125    0.0000 C   0  0
    0.7145    0.4125    0.0000 C   0  0
    0.0000    0.8250    0.0000 C   0  0
   -0.1713    1.6316    0.0000 O   0  0
   -0.9918    1.7178    0.0000 C   0  0
   -1.3273    0.9642    0.0000 O   0  0
   -0.7145    0.4125    0.0000 C   0  0
   -0.7145   -0.4125    0.0000 C   0  0
    0.0000   -0.8250    0.0000 C   0  0
   -0.0017   -1.6505    0.0000 C   0  0
   -0.7172   -2.0622    0.0000 C   0  0
   -0.7958   -2.8764    0.0000 C   0  0
   -0.3043   -3.3168    0.0000 O   0  0
   -1.6034   -3.0451    0.0000 N   0  0
   -2.0134   -2.3292    0.0000 N   0  0
   -1.4592   -1.7181    0.0000 C   0  0
   -1.5904   -1.0712    0.0000 O   0  0
   -2.8340   -2.2401    0.0000 C   0  0
   -3.3678   -2.8655    0.0000 C   0  0
   -4.1789   -2.7150    0.0000 C   0  0
   -4.4542   -1.9372    0.0000 C   0  0
   -5.1031   -1.8168    0.0000 I   0  0
   -3.9182   -1.3100    0.0000 C   0  0
   -3.1070   -1.4605    0.0000 C   0  0
   -1.8288   -3.5468    0.0000 H   0  0
  1  2  1  0
  2  3  2  0
  3  4  1  0
  4  5  1  0
  5  6  1  0
  6  7  1  0
  7  8  1  0
  8  4  2  0
  8  9  1  0
  9 10  2  0
 10  2  1  0
 10 11  1  0
 11 12  2  0
 12 13  1  0
 13 14  2  0
 13 15  1  0
 15 16  1  0
 15 26  1  0
 16 17  1  0
 16 19  1  0
 17 12  1  0
 17 18  2  0
 19 20  2  0
 20 21  1  0
 21 22  2  0
 22 23  1  0
 22 24  1  0
 24 25  2  0
 25 19  1  0
M  END
> <CMPD_CHEMBLID>
CHEMBL379308

> <STANDARD_TYPE>
Ki

> <RELATION>
=

> <STANDARD_VALUE>
2500

> <STANDARD_UNITS>
nM

> <Molecular_Weight>
513.08077

$$$$

  SciTegic11272012012D

 25 27  0  0  0  0            999 V2000
   -2.0134   -4.5941    0.0000 C   0  0
   -2.1705   -3.9530    0.0000 O   0  0
   -1.5746   -3.3817    0.0000 C   0  0
   -0.7828   -3.6136    0.0000 C   0  0
   -0.1861   -3.0438    0.0000 C   0  0
    0.4473   -3.2291    0.0000 F   0  0
   -0.3810   -2.2450    0.0000 C   0  0
   -1.1730   -2.0103    0.0000 C   0  0
   -1.7697   -2.5801    0.0000 C   0  0
   -2.4031   -2.3946    0.0000 F   0  0
    0.1713   -1.6316    0.0000 C   0  0
    0.9918   -1.7179    0.0000 N   0  0
    1.3273   -0.9642    0.0000 N   0  0
    2.1337   -0.7943    0.0000 C   0  0
    2.5748   -1.2854    0.0000 C   0  0
    2.3387   -0.1669    0.0000 C   0  0
    0.7145   -0.4125    0.0000 C   0  0
    0.7145    0.4125    0.0000 N   0  0
    0.0000    0.8250    0.0000 C   0  0
   -0.7145    0.4125    0.0000 N   0  0
   -0.7145   -0.4125    0.0000 C   0  0
   -1.4302   -0.8238    0.0000 N   0  0
    0.0000   -0.8250    0.0000 C   0  0
   -1.9062   -0.5481    0.0000 H   0  0
   -1.4312   -1.3738    0.0000 H   0  0
  1  2  1  0
  2  3  1  0
  3  4  2  0
  4  5  1  0
  5  6  1  0
  5  7  2  0
  7  8  1  0
  7 11  1  0
  8  9  2  0
  9  3  1  0
  9 10  1  0
 11 12  2  0
 12 13  1  0
 13 14  1  0
 13 17  1  0
 14 15  1  0
 14 16  1  0
 17 18  2  0
 18 19  1  0
 19 20  2  0
 20 21  1  0
 21 22  1  0
 21 23  2  0
 22 24  1  0
 22 25  1  0
 23 11  1  0
 23 17  1  0
M  END
> <CMPD_CHEMBLID>
CHEMBL1242027

> <STANDARD_TYPE>
IC50

> <RELATION>
=

> <STANDARD_VALUE>
2500

> <STANDARD_UNITS>
nM

> <Molecular_Weight>
319.30931

$$$$

  SciTegic11272012012D

 41 44  0  0  0  0            999 V2000
    4.3969    1.8683    0.0000 C   0  0
    4.7864    1.3355    0.0000 C   0  0
    5.4425    1.4066    0.0000 C   0  0
    5.0530    1.9392    0.0000 C   0  0
    4.4538    0.5816    0.0000 C   0  0
    3.6474    0.4072    0.0000 C   0  0
    3.5744   -0.4075    0.0000 C   0  0
    2.8602   -0.8213    0.0000 N   0  0
    2.1444   -0.4100    0.0000 C   0  0
    2.1433    0.2500    0.0000 O   0  0
    1.4302   -0.8237    0.0000 C   0  0
    1.4313   -1.4837    0.0000 O   0  0
    0.7144   -0.4125    0.0000 C   0  0
    0.7144    0.4125    0.0000 C   0  0
    0.0000    0.8250    0.0000 C   0  0
   -0.7144    0.4125    0.0000 C   0  0
   -0.7144   -0.4125    0.0000 C   0  0
   -1.4290   -0.8250    0.0000 C   0  0
   -1.4290   -1.6500    0.0000 C   0  0
   -0.7144   -2.0625    0.0000 C   0  0
    0.0000   -1.6500    0.0000 C   0  0
    0.0000   -0.8250    0.0000 C   0  0
    4.3189   -0.7465    0.0000 N   0  0
    4.8688   -0.1315    0.0000 N   0  0
    4.4885   -1.5543    0.0000 C   0  0
    3.9213   -2.1494    0.0000 C   0  0
    4.1544   -2.9408    0.0000 C   0  0
    4.9564   -3.1346    0.0000 C   0  0
    5.5251   -2.5370    0.0000 C   0  0
    6.3279   -2.7293    0.0000 O   0  0
    6.8962   -2.1306    0.0000 C   0  0
    7.6989   -2.3229    0.0000 C   0  0
    7.8865   -2.9556    0.0000 O   0  0
    8.2672   -1.7241    0.0000 N   0  0
    9.0699   -1.9164    0.0000 C   0  0
    9.6382   -1.3177    0.0000 C   0  0
   10.4409   -1.5100    0.0000 O   0  0
    5.2920   -1.7456    0.0000 C   0  0
   10.8196   -1.1111    0.0000 H   0  0
    8.1108   -1.1968    0.0000 H   0  0
    2.8612   -1.3713    0.0000 H   0  0
  1  2  1  0
  2  3  1  0
  2  4  1  0
  2  5  1  0
  5  6  1  0
  6  7  2  0
  7  8  1  0
  7 23  1  0
  8  9  1  0
  8 41  1  0
  9 10  2  0
  9 11  1  0
 11 12  2  0
 11 13  1  0
 13 14  2  0
 14 15  1  0
 15 16  2  0
 16 17  1  0
 17 18  2  0
 18 19  1  0
 19 20  2  0
 20 21  1  0
 21 22  2  0
 22 13  1  0
 22 17  1  0
 23 24  1  0
 23 25  1  0
 24  5  2  0
 25 26  2  0
 26 27  1  0
 27 28  2  0
 28 29  1  0
 29 30  1  0
 29 38  2  0
 30 31  1  0
 31 32  1  0
 32 33  2  0
 32 34  1  0
 34 35  1  0
 34 40  1  0
 35 36  1  0
 36 37  1  0
 37 39  1  0
 38 25  1  0
M  END
> <CMPD_CHEMBLID>
CHEMBL1998680

> <STANDARD_TYPE>
Ki

> <RELATION>
>

> <STANDARD_VALUE>
2511.89

> <STANDARD_UNITS>
nM

> <Molecular_Weight>
514.5723

$$$$

  SciTegic11272012012D

 21 23  0  0  0  0            999 V2000
    0.9886   -3.1466    0.0000 N   0  0
    1.4024   -2.4324    0.0000 C   0  0
    2.0624   -2.4335    0.0000 O   0  0
    0.9918   -1.7178    0.0000 C   0  0
    1.3273   -0.9642    0.0000 C   0  0
    0.7145   -0.4125    0.0000 C   0  0
    0.7145    0.4125    0.0000 C   0  0
    0.0000    0.8250    0.0000 C   0  0
   -0.7145    0.4125    0.0000 N   0  0
   -0.7145   -0.4125    0.0000 C   0  0
    0.0000   -0.8250    0.0000 C   0  0
    0.1713   -1.6316    0.0000 S   0  0
    1.4293    0.8252    0.0000 C   0  0
    2.1445    0.4139    0.0000 C   0  0
    2.8583    0.8275    0.0000 C   0  0
    2.8570    1.6526    0.0000 C   0  0
    3.4281    1.9834    0.0000 Br  0  0
    2.1419    2.0639    0.0000 C   0  0
    1.4280    1.6502    0.0000 C   0  0
    1.2626   -3.6235    0.0000 H   0  0
    0.4386   -3.1457    0.0000 H   0  0
  1  2  1  0
  1 20  1  0
  1 21  1  0
  2  3  2  0
  2  4  1  0
  4  5  2  0
  5  6  1  0
  6  7  2  0
  7  8  1  0
  7 13  1  0
  8  9  2  0
  9 10  1  0
 10 11  2  0
 11  6  1  0
 11 12  1  0
 12  4  1  0
 13 14  2  0
 14 15  1  0
 15 16  2  0
 16 17  1  0
 16 18  1  0
 18 19  2  0
 19 13  1  0
M  END
> <CMPD_CHEMBLID>
CHEMBL1978195

> <STANDARD_TYPE>
Ki

> <RELATION>
>

> <STANDARD_VALUE>
2511.89

> <STANDARD_UNITS>
nM

> <Molecular_Weight>
333.20306

$$$$

  SciTegic11272012012D

 34 38  0  0  0  0            999 V2000
    5.5725   -3.2178    0.0000 F   0  0
    5.0003   -2.8889    0.0000 C   0  0
    4.9992   -2.2289    0.0000 F   0  0
    5.5713   -2.5579    0.0000 F   0  0
    4.2860   -3.3026    0.0000 O   0  0
    3.5703   -2.8914    0.0000 C   0  0
    2.8558   -3.3038    0.0000 C   0  0
    2.1414   -2.8913    0.0000 C   0  0
    2.1413   -2.0663    0.0000 C   0  0
    1.4273   -1.6521    0.0000 C   0  0
    1.4285   -0.8267    0.0000 C   0  0
    2.0006   -0.4977    0.0000 O   0  0
    0.7144   -0.4125    0.0000 N   0  0
    0.7144    0.4125    0.0000 C   0  0
    0.0000    0.8250    0.0000 C   0  0
   -0.7144    0.4125    0.0000 C   0  0
   -0.7144   -0.4125    0.0000 C   0  0
    0.0000   -0.8250    0.0000 C   0  0
   -1.1773    1.1269    0.0000 N   0  0
   -2.0023    1.1269    0.0000 C   0  0
   -2.4148    0.4125    0.0000 C   0  0
   -2.0023   -0.3020    0.0000 C   0  0
   -1.1773   -0.3020    0.0000 C   0  0
   -0.9221   -1.0861    0.0000 N   0  0
   -1.5896   -1.5711    0.0000 C   0  0
   -1.6754   -2.3910    0.0000 C   0  0
   -2.4291   -2.7265    0.0000 C   0  0
   -3.0965   -2.2416    0.0000 C   0  0
   -3.0103   -1.4211    0.0000 C   0  0
   -2.2570   -1.0861    0.0000 C   0  0
    2.8559   -1.6539    0.0000 C   0  0
    3.5703   -2.0664    0.0000 C   0  0
   -0.3990   -1.2560    0.0000 H   0  0
   -0.9146    1.6102    0.0000 H   0  0
  1  2  1  0
  2  3  1  0
  2  4  1  0
  2  5  1  0
  5  6  1  0
  6  7  2  0
  7  8  1  0
  8  9  2  0
  9 10  1  0
  9 31  1  0
 10 11  1  0
 11 12  2  0
 11 13  1  0
 13 14  1  0
 14 15  1  0
 15 16  1  0
 16 17  1  0
 16 19  1  0
 17 18  1  0
 18 13  1  0
 19 20  1  0
 19 34  1  0
 20 21  1  0
 21 22  1  0
 22 23  2  0
 23 16  1  0
 23 24  1  0
 24 25  1  0
 24 33  1  0
 25 26  2  0
 26 27  1  0
 27 28  2  0
 28 29  1  0
 29 30  2  0
 30 22  1  0
 30 25  1  0
 31 32  2  0
 32  6  1  0
M  END
> <CMPD_CHEMBLID>
CHEMBL1996576

> <STANDARD_TYPE>
Ki

> <RELATION>
>

> <STANDARD_VALUE>
2511.89

> <STANDARD_UNITS>
nM

> <Molecular_Weight>
443.46147

$$$$

  SciTegic11272012012D

 25 28  0  0  0  0            999 V2000
    2.0639   -2.4319    0.0000 C   0  0
    1.4039   -2.4315    0.0000 C   0  0
    1.0736   -3.0030    0.0000 C   0  0
    1.7336   -3.0032    0.0000 C   0  0
    0.9918   -1.7179    0.0000 C   0  0
    1.3273   -0.9642    0.0000 N   0  0
    0.7145   -0.4125    0.0000 C   0  0
    0.7145    0.4125    0.0000 C   0  0
    1.4290    0.8250    0.0000 C   0  0
    1.4290    1.6500    0.0000 C   0  0
    0.7145    2.0625    0.0000 C   0  0
    0.7145    2.7226    0.0000 F   0  0
    0.0000    1.6500    0.0000 C   0  0
    0.0000    0.8250    0.0000 C   0  0
   -0.7145    0.4125    0.0000 C   0  0
   -1.4290    0.8250    0.0000 C   0  0
   -1.4290    1.4850    0.0000 O   0  0
   -2.1435    0.4125    0.0000 N   0  0
   -2.1435   -0.4125    0.0000 C   0  0
   -1.4290   -0.8250    0.0000 C   0  0
   -0.7145   -0.4125    0.0000 C   0  0
    0.0000   -0.8250    0.0000 C   0  0
    0.1713   -1.6316    0.0000 N   0  0
   -0.1967   -2.0403    0.0000 H   0  0
   -2.6198    0.6875    0.0000 H   0  0
  1  2  1  0
  2  3  1  0
  2  4  1  0
  2  5  1  0
  5  6  2  0
  6  7  1  0
  7  8  2  0
  8  9  1  0
  9 10  2  0
 10 11  1  0
 11 12  1  0
 11 13  2  0
 13 14  1  0
 14  8  1  0
 14 15  2  0
 15 16  1  0
 16 17  2  0
 16 18  1  0
 18 19  1  0
 18 25  1  0
 19 20  2  0
 20 21  1  0
 21 15  1  0
 21 22  2  0
 22  7  1  0
 22 23  1  0
 23  5  1  0
 23 24  1  0
M  END
> <CMPD_CHEMBLID>
CHEMBL21156

> <STANDARD_TYPE>
Ki

> <RELATION>
>

> <STANDARD_VALUE>
2511.89

> <STANDARD_UNITS>
nM

> <Molecular_Weight>
309.33754

$$$$

  SciTegic11272012012D

 29 32  0  0  0  0            999 V2000
    1.4302   -0.8237    0.0000 O   0  0
    0.7144   -0.4125    0.0000 C   0  0
    0.7144    0.4125    0.0000 C   0  0
    0.0000    0.8250    0.0000 C   0  0
   -0.7144    0.4125    0.0000 C   0  0
   -0.7144   -0.4125    0.0000 C   0  0
   -1.3273   -0.9641    0.0000 S   0  0
   -0.9918   -1.7178    0.0000 C   0  0
   -1.4023   -2.4323    0.0000 N   0  0
   -0.9885   -3.1465    0.0000 C   0  0
   -0.3285   -3.1454    0.0000 O   0  0
   -1.3998   -3.8623    0.0000 N   0  0
   -0.9860   -4.5765    0.0000 C   0  0
   -0.1610   -4.5737    0.0000 C   0  0
    0.2540   -5.2868    0.0000 C   0  0
   -0.1560   -6.0026    0.0000 C   0  0
   -0.9810   -6.0055    0.0000 C   0  0
   -1.3960   -5.2925    0.0000 C   0  0
   -2.2214   -5.2954    0.0000 C   0  0
   -2.6376   -4.5830    0.0000 C   0  0
   -3.4626   -4.5872    0.0000 C   0  0
   -3.8714   -5.3038    0.0000 C   0  0
   -3.4553   -6.0161    0.0000 C   0  0
   -2.6303   -6.0119    0.0000 C   0  0
   -0.1713   -1.6316    0.0000 N   0  0
    0.0000   -0.8250    0.0000 C   0  0
   -1.9497   -3.8633    0.0000 H   0  0
   -1.9523   -2.4333    0.0000 H   0  0
    1.9061   -0.5481    0.0000 H   0  0
  1  2  1  0
  1 29  1  0
  2  3  2  0
  3  4  1  0
  4  5  2  0
  5  6  1  0
  6  7  1  0
  7  8  1  0
  8  9  1  0
  8 25  2  0
  9 10  1  0
  9 28  1  0
 10 11  2  0
 10 12  1  0
 12 13  1  0
 12 27  1  0
 13 14  2  0
 14 15  1  0
 15 16  2  0
 16 17  1  0
 17 18  2  0
 18 13  1  0
 18 19  1  0
 19 20  2  0
 20 21  1  0
 21 22  2  0
 22 23  1  0
 23 24  2  0
 24 19  1  0
 25 26  1  0
 26  2  1  0
 26  6  2  0
M  END
> <CMPD_CHEMBLID>
CHEMBL2002690

> <STANDARD_TYPE>
Ki

> <RELATION>
>

> <STANDARD_VALUE>
2511.89

> <STANDARD_UNITS>
nM

> <Molecular_Weight>
361.417

$$$$

  SciTegic11272012012D

 21 22  0  0  0  0            999 V2000
    1.9982   -1.9833    0.0000 C   0  0
    1.4273   -1.6522    0.0000 C   0  0
    1.4285   -0.8267    0.0000 O   0  0
    0.7145   -0.4125    0.0000 C   0  0
    0.7145    0.4125    0.0000 C   0  0
    0.0000    0.8250    0.0000 C   0  0
   -0.7145    0.4125    0.0000 C   0  0
   -1.4285    0.8267    0.0000 C   0  0
   -1.4273    1.6522    0.0000 C   0  0
   -0.7582    2.1228    0.0000 S   0  0
   -1.0105    2.9083    0.0000 C   0  0
   -0.5224    3.5723    0.0000 N   0  0
   -1.8355    2.9112    0.0000 N   0  0
   -2.0931    2.1274    0.0000 C   0  0
   -2.7204    1.9219    0.0000 O   0  0
   -0.7145   -0.4125    0.0000 C   0  0
   -1.4285   -0.8267    0.0000 O   0  0
    0.0000   -0.8250    0.0000 C   0  0
   -1.4277   -1.3767    0.0000 H   0  0
   -2.1572    3.3572    0.0000 H   0  0
    0.0243    3.5121    0.0000 H   0  0
  1  2  1  0
  2  3  1  0
  3  4  1  0
  4  5  2  0
  5  6  1  0
  6  7  2  0
  7  8  1  0
  7 16  1  0
  8  9  2  0
  9 10  1  0
 10 11  1  0
 11 12  2  0
 11 13  1  0
 12 21  1  0
 13 14  1  0
 13 20  1  0
 14  9  1  0
 14 15  2  0
 16 17  1  0
 16 18  2  0
 17 19  1  0
 18  4  1  0
M  END
> <CMPD_CHEMBLID>
CHEMBL1971289

> <STANDARD_TYPE>
Ki

> <RELATION>
>

> <STANDARD_VALUE>
2511.89

> <STANDARD_UNITS>
nM

> <Molecular_Weight>
264.30028

$$$$

  SciTegic11272012012D

 22 24  0  0  0  0            999 V2000
    2.1433    0.2500    0.0000 C   0  0
    2.1444   -0.4100    0.0000 N   0  0
    1.4302   -0.8237    0.0000 C   0  0
    0.7144   -0.4125    0.0000 C   0  0
    0.7144    0.4125    0.0000 C   0  0
    0.0000    0.8250    0.0000 C   0  0
    0.0000    1.4850    0.0000 Cl  0  0
   -0.7144    0.4125    0.0000 C   0  0
   -1.4285    0.8267    0.0000 O   0  0
   -0.7144   -0.4125    0.0000 C   0  0
   -1.4290   -0.8250    0.0000 N   0  0
   -1.4290   -1.6500    0.0000 C   0  0
   -0.7144   -2.0625    0.0000 C   0  0
    0.0000   -1.6500    0.0000 C   0  0
    0.0000   -0.8250    0.0000 C   0  0
    2.8602   -0.8213    0.0000 C   0  0
    3.5747   -0.4088    0.0000 C   0  0
    4.2892   -0.8213    0.0000 C   0  0
    4.2892   -1.6463    0.0000 C   0  0
    3.5747   -2.0588    0.0000 C   0  0
    2.8602   -1.6463    0.0000 C   0  0
   -1.4277    1.3767    0.0000 H   0  0
  1  2  1  0
  2  3  1  0
  2 16  1  0
  3  4  1  0
  4  5  2  0
  5  6  1  0
  6  7  1  0
  6  8  2  0
  8  9  1  0
  8 10  1  0
  9 22  1  0
 10 11  2  0
 11 12  1  0
 12 13  2  0
 13 14  1  0
 14 15  2  0
 15  4  1  0
 15 10  1  0
 16 17  1  0
 17 18  1  0
 18 19  1  0
 19 20  1  0
 20 21  1  0
 21 16  1  0
M  END
> <CMPD_CHEMBLID>
CHEMBL1982413

> <STANDARD_TYPE>
Ki

> <RELATION>
>

> <STANDARD_VALUE>
2511.89

> <STANDARD_UNITS>
nM

> <Molecular_Weight>
304.81444

$$$$

  SciTegic11272012012D

 25 27  0  0  0  0            999 V2000
    1.4276   -1.4867    0.0000 C   0  0
    1.4285   -0.8267    0.0000 O   0  0
    0.7145   -0.4125    0.0000 C   0  0
    0.7145    0.4125    0.0000 C   0  0
    0.0000    0.8250    0.0000 C   0  0
   -0.7145    0.4125    0.0000 C   0  0
   -0.7145   -0.4125    0.0000 C   0  0
    0.0000   -0.8250    0.0000 C   0  0
   -1.4285   -0.8267    0.0000 C   0  0
   -2.0007   -0.4977    0.0000 C   0  0
   -1.4273   -1.6522    0.0000 N   0  0
   -2.1414   -2.0664    0.0000 C   0  0
   -2.7135   -1.7374    0.0000 O   0  0
   -2.1402   -2.8919    0.0000 C   0  0
   -2.8060   -3.3671    0.0000 C   0  0
   -2.5483   -4.1508    0.0000 C   0  0
   -1.7233   -4.1480    0.0000 C   0  0
   -1.4711   -3.3624    0.0000 S   0  0
   -1.2358   -4.8141    0.0000 C   0  0
   -1.5106   -5.5891    0.0000 C   0  0
   -0.9746   -6.2163    0.0000 C   0  0
   -0.1634   -6.0658    0.0000 N   0  0
    0.1118   -5.2880    0.0000 C   0  0
   -0.4242   -4.6608    0.0000 C   0  0
   -0.9505   -1.9264    0.0000 H   0  0
  1  2  1  0
  2  3  1  0
  3  4  2  0
  4  5  1  0
  5  6  2  0
  6  7  1  0
  7  8  2  0
  7  9  1  0
  8  3  1  0
  9 10  1  0
  9 11  1  0
 11 12  1  0
 11 25  1  0
 12 13  2  0
 12 14  1  0
 14 15  2  0
 15 16  1  0
 16 17  2  0
 17 18  1  0
 17 19  1  0
 18 14  1  0
 19 20  2  0
 20 21  1  0
 21 22  2  0
 22 23  1  0
 23 24  2  0
 24 19  1  0
M  END
> <CMPD_CHEMBLID>
CHEMBL1994724

> <STANDARD_TYPE>
Ki

> <RELATION>
>

> <STANDARD_VALUE>
2511.89

> <STANDARD_UNITS>
nM

> <Molecular_Weight>
338.42342

$$$$

  SciTegic11272012012D

 18 20  0  0  0  0            999 V2000
    1.4302   -0.8238    0.0000 N   0  0
    0.7145   -0.4125    0.0000 C   0  0
    0.7145    0.4125    0.0000 N   0  0
    0.0000    0.8250    0.0000 C   0  0
   -0.7145    0.4125    0.0000 N   0  0
   -0.7145   -0.4125    0.0000 C   0  0
   -1.3273   -0.9642    0.0000 S   0  0
   -0.9918   -1.7179    0.0000 C   0  0
   -0.1713   -1.6316    0.0000 C   0  0
    0.3811   -2.2450    0.0000 C   0  0
    0.1862   -3.0438    0.0000 C   0  0
    0.7828   -3.6136    0.0000 C   0  0
    1.5746   -3.3817    0.0000 C   0  0
    1.7697   -2.5801    0.0000 C   0  0
    1.1730   -2.0103    0.0000 C   0  0
    0.0000   -0.8250    0.0000 C   0  0
    1.9062   -0.5481    0.0000 H   0  0
    1.4312   -1.3738    0.0000 H   0  0
  1  2  1  0
  1 17  1  0
  1 18  1  0
  2  3  2  0
  3  4  1  0
  4  5  2  0
  5  6  1  0
  6  7  1  0
  7  8  1  0
  8  9  2  0
  9 10  1  0
  9 16  1  0
 10 11  2  0
 11 12  1  0
 12 13  2  0
 13 14  1  0
 14 15  2  0
 15 10  1  0
 16  2  1  0
 16  6  2  0
M  END
> <CMPD_CHEMBLID>
CHEMBL1975212

> <STANDARD_TYPE>
Ki

> <RELATION>
=

> <STANDARD_VALUE>
2511.89

> <STANDARD_UNITS>
nM

> <Molecular_Weight>
227.28496

$$$$

  SciTegic11272012012D

 27 30  0  0  0  0            999 V2000
    1.4285   -0.8267    0.0000 O   0  0
    0.7145   -0.4125    0.0000 C   0  0
    0.7145    0.4125    0.0000 C   0  0
    0.0000    0.8250    0.0000 C   0  0
   -0.7145    0.4125    0.0000 C   0  0
   -0.7145   -0.4125    0.0000 C   0  0
    0.0000   -0.8250    0.0000 C   0  0
   -1.4293    0.8252    0.0000 C   0  0
   -2.1721    0.4825    0.0000 N   0  0
   -2.7251    1.0947    0.0000 C   0  0
   -3.5459    1.0071    0.0000 C   0  0
   -3.9343    0.2824    0.0000 C   0  0
   -4.7589    0.2568    0.0000 C   0  0
   -5.1934    0.9582    0.0000 C   0  0
   -5.8531    0.9377    0.0000 F   0  0
   -4.8032    1.6851    0.0000 C   0  0
   -3.9786    1.7106    0.0000 C   0  0
   -2.3137    1.8098    0.0000 C   0  0
   -1.5065    1.6396    0.0000 N   0  0
   -2.6507    2.5634    0.0000 C   0  0
   -3.4600    2.7089    0.0000 C   0  0
   -3.7391    3.4852    0.0000 C   0  0
   -3.2064    4.1151    0.0000 N   0  0
   -2.3944    3.9687    0.0000 C   0  0
   -2.1153    3.1923    0.0000 C   0  0
   -1.0961    2.0058    0.0000 H   0  0
    1.4277   -1.3767    0.0000 H   0  0
  1  2  1  0
  1 27  1  0
  2  3  2  0
  3  4  1  0
  4  5  2  0
  5  6  1  0
  5  8  1  0
  6  7  2  0
  7  2  1  0
  8  9  2  0
  9 10  1  0
 10 11  1  0
 10 18  2  0
 11 12  2  0
 12 13  1  0
 13 14  2  0
 14 15  1  0
 14 16  1  0
 16 17  2  0
 17 11  1  0
 18 19  1  0
 18 20  1  0
 19  8  1  0
 19 26  1  0
 20 21  2  0
 21 22  1  0
 22 23  2  0
 23 24  1  0
 24 25  2  0
 25 20  1  0
M  END
> <CMPD_CHEMBLID>
CHEMBL278041

> <STANDARD_TYPE>
Ki

> <RELATION>
>

> <STANDARD_VALUE>
2511.89

> <STANDARD_UNITS>
nM

> <Molecular_Weight>
331.34306

$$$$

  SciTegic11272012012D

 43 47  0  0  0  0            999 V2000
    2.0013   -0.4930    0.0000 C   0  0
    1.4302   -0.8238    0.0000 O   0  0
    0.7145   -0.4125    0.0000 C   0  0
    0.7145    0.4125    0.0000 C   0  0
    0.0000    0.8250    0.0000 C   0  0
   -0.1713    1.6316    0.0000 C   0  0
   -0.9918    1.7179    0.0000 C   0  0
   -1.3273    0.9642    0.0000 N   0  0
   -2.1337    0.7943    0.0000 C   0  0
   -2.3387    0.1669    0.0000 O   0  0
   -2.6853    1.4085    0.0000 C   0  0
   -3.4931    1.2384    0.0000 N   0  0
   -3.9341    1.7293    0.0000 C   0  0
   -3.6980    0.6110    0.0000 C   0  0
   -0.7145    0.4125    0.0000 C   0  0
   -0.7145   -0.4125    0.0000 C   0  0
    0.0000   -0.8250    0.0000 C   0  0
   -0.0017   -1.6505    0.0000 N   0  0
   -0.7172   -2.0622    0.0000 C   0  0
   -0.7201   -2.8872    0.0000 N   0  0
   -1.4360   -3.2973    0.0000 C   0  0
   -1.4371   -4.1228    0.0000 N   0  0
   -0.7231   -4.5369    0.0000 C   0  0
   -0.0085   -4.1244    0.0000 C   0  0
    0.7059   -4.5369    0.0000 C   0  0
    0.7059   -5.3620    0.0000 C   0  0
   -0.0085   -5.7745    0.0000 C   0  0
   -0.0085   -6.4345    0.0000 F   0  0
   -0.7230   -5.3620    0.0000 C   0  0
   -1.4388   -5.7733    0.0000 C   0  0
   -1.4399   -6.4333    0.0000 O   0  0
   -2.1531   -5.3595    0.0000 N   0  0
   -2.1490   -2.8823    0.0000 C   0  0
   -2.9341   -3.1345    0.0000 C   0  0
   -3.4167   -2.4654    0.0000 C   0  0
   -2.9295   -1.7996    0.0000 N   0  0
   -2.1461   -2.0573    0.0000 C   0  0
   -1.4303   -1.6472    0.0000 N   0  0
   -3.0976   -1.2760    0.0000 H   0  0
   -2.6299   -5.6336    0.0000 H   0  0
   -2.1521   -4.8095    0.0000 H   0  0
   -1.9139   -4.3970    0.0000 H   0  0
    0.4742   -1.9263    0.0000 H   0  0
  1  2  1  0
  2  3  1  0
  3  4  2  0
  4  5  1  0
  5  6  1  0
  6  7  1  0
  7  8  1  0
  8  9  1  0
  8 15  1  0
  9 10  2  0
  9 11  1  0
 11 12  1  0
 12 13  1  0
 12 14  1  0
 15  5  2  0
 15 16  1  0
 16 17  2  0
 17  3  1  0
 17 18  1  0
 18 19  1  0
 18 43  1  0
 19 20  2  0
 20 21  1  0
 21 22  1  0
 21 33  2  0
 22 23  1  0
 22 42  1  0
 23 24  2  0
 24 25  1  0
 25 26  2  0
 26 27  1  0
 27 28  1  0
 27 29  2  0
 29 23  1  0
 29 30  1  0
 30 31  2  0
 30 32  1  0
 32 40  1  0
 32 41  1  0
 33 34  1  0
 34 35  2  0
 35 36  1  0
 36 37  1  0
 36 39  1  0
 37 33  1  0
 37 38  2  0
 38 19  1  0
M  END
> <CMPD_CHEMBLID>
CHEMBL461876

> <STANDARD_TYPE>
Ki

> <RELATION>
>

> <STANDARD_VALUE>
2511.89

> <STANDARD_UNITS>
nM

> <Molecular_Weight>
518.54278

$$$$

  SciTegic11272012012D

 28 29  0  0  0  0            999 V2000
    4.8613   -0.4880    0.0000 C   0  0
    4.2902   -0.8188    0.0000 C   0  0
    3.5744   -0.4075    0.0000 C   0  0
    2.8602   -0.8213    0.0000 C   0  0
    2.1444   -0.4100    0.0000 N   0  0
    1.4302   -0.8237    0.0000 C   0  0
    1.4313   -1.4837    0.0000 O   0  0
    0.7144   -0.4125    0.0000 C   0  0
    0.7144    0.4125    0.0000 C   0  0
    0.0000    0.8250    0.0000 N   0  0
    0.0017    1.6504    0.0000 C   0  0
    0.7171    2.0622    0.0000 C   0  0
    0.7185    2.7222    0.0000 C   0  0
   -0.7116    2.0659    0.0000 C   0  0
   -0.7095    2.7259    0.0000 C   0  0
   -0.7144    0.4125    0.0000 C   0  0
   -1.2861    0.7425    0.0000 O   0  0
   -0.7144   -0.4125    0.0000 C   0  0
   -1.4290   -0.8250    0.0000 C   0  0
   -1.4290   -1.6500    0.0000 C   0  0
   -2.1447   -2.0613    0.0000 O   0  0
   -2.7157   -1.7305    0.0000 C   0  0
   -0.7144   -2.0625    0.0000 C   0  0
   -0.7127   -2.8879    0.0000 O   0  0
   -0.1407   -3.2172    0.0000 C   0  0
    0.0000   -1.6500    0.0000 C   0  0
    0.0000   -0.8250    0.0000 C   0  0
    2.1435    0.1400    0.0000 H   0  0
  1  2  1  0
  2  3  1  0
  3  4  1  0
  4  5  1  0
  5  6  1  0
  5 28  1  0
  6  7  2  0
  6  8  1  0
  8  9  2  0
  9 10  1  0
 10 11  1  0
 10 16  1  0
 11 12  1  0
 11 14  1  0
 12 13  1  0
 14 15  1  0
 16 17  2  0
 16 18  1  0
 18 19  2  0
 19 20  1  0
 20 21  1  0
 20 23  2  0
 21 22  1  0
 23 24  1  0
 23 26  1  0
 24 25  1  0
 26 27  2  0
 27  8  1  0
 27 18  1  0
M  END
> <CMPD_CHEMBLID>
CHEMBL1982700

> <STANDARD_TYPE>
Ki

> <RELATION>
>

> <STANDARD_VALUE>
2511.89

> <STANDARD_UNITS>
nM

> <Molecular_Weight>
374.4739

$$$$

  SciTegic11272012012D

 28 31  0  0  0  0            999 V2000
   -0.4693   -4.2717    0.0000 C   0  0
   -0.6741   -3.6443    0.0000 C   0  0
   -0.1229   -3.0298    0.0000 O   0  0
   -0.3790   -2.2450    0.0000 C   0  0
   -1.0247   -2.1088    0.0000 O   0  0
    0.1713   -1.6316    0.0000 C   0  0
    0.9918   -1.7179    0.0000 C   0  0
    1.3218   -2.2894    0.0000 C   0  0
    1.3273   -0.9642    0.0000 N   0  0
    2.1348   -0.7925    0.0000 C   0  0
    2.7291   -1.3607    0.0000 C   0  0
    3.5209   -1.1288    0.0000 C   0  0
    3.7159   -0.3272    0.0000 C   0  0
    4.3494   -0.1417    0.0000 I   0  0
    3.1193    0.2426    0.0000 C   0  0
    2.3275    0.0107    0.0000 C   0  0
    0.7145   -0.4125    0.0000 C   0  0
    0.7145    0.4125    0.0000 C   0  0
    1.4290    0.8250    0.0000 C   0  0
    1.4290    1.6500    0.0000 C   0  0
    0.7145    2.0625    0.0000 C   0  0
    0.0000    1.6500    0.0000 C   0  0
    0.0000    0.8250    0.0000 C   0  0
   -0.7145    0.4125    0.0000 C   0  0
   -1.4302    0.8238    0.0000 O   0  0
   -0.7145   -0.4125    0.0000 C   0  0
    0.0000   -0.8250    0.0000 C   0  0
   -1.9062    0.5481    0.0000 H   0  0
  1  2  1  0
  2  3  1  0
  3  4  1  0
  4  5  2  0
  4  6  1  0
  6  7  2  0
  7  8  1  0
  7  9  1  0
  9 10  1  0
  9 17  1  0
 10 11  2  0
 11 12  1  0
 12 13  2  0
 13 14  1  0
 13 15  1  0
 15 16  2  0
 16 10  1  0
 17 18  2  0
 18 19  1  0
 19 20  2  0
 20 21  1  0
 21 22  2  0
 22 23  1  0
 23 18  1  0
 23 24  2  0
 24 25  1  0
 24 26  1  0
 25 28  1  0
 26 27  2  0
 27  6  1  0
 27 17  1  0
M  END
> <CMPD_CHEMBLID>
CHEMBL1970352

> <STANDARD_TYPE>
Ki

> <RELATION>
>

> <STANDARD_VALUE>
2511.89

> <STANDARD_UNITS>
nM

> <Molecular_Weight>
471.28769

$$$$

  SciTegic11272012012D

 21 22  0  0  0  0            999 V2000
    2.0006   -0.4977    0.0000 C   0  0
    1.4285   -0.8267    0.0000 C   0  0
    1.4273   -1.6521    0.0000 N   0  0
    0.7144   -0.4125    0.0000 C   0  0
    0.7144    0.4125    0.0000 C   0  0
    0.0000    0.8250    0.0000 C   0  0
   -0.7144    0.4125    0.0000 C   0  0
   -0.7144   -0.4125    0.0000 C   0  0
    0.0000   -0.8250    0.0000 C   0  0
   -1.4302    0.8237    0.0000 C   0  0
   -1.4313    1.4837    0.0000 O   0  0
   -2.1444    0.4100    0.0000 N   0  0
   -2.8602    0.8213    0.0000 C   0  0
   -3.5747    0.4088    0.0000 C   0  0
   -4.2892    0.8213    0.0000 C   0  0
   -4.2892    1.6463    0.0000 N   0  0
   -3.5747    2.0588    0.0000 C   0  0
   -2.8602    1.6463    0.0000 C   0  0
   -2.1435   -0.1400    0.0000 H   0  0
    1.9031   -1.9281    0.0000 H   0  0
    0.9505   -1.9263    0.0000 H   0  0
  1  2  1  0
  2  3  1  0
  2  4  1  0
  3 20  1  0
  3 21  1  0
  4  5  1  0
  5  6  1  0
  6  7  1  0
  7  8  1  0
  7 10  1  0
  8  9  1  0
  9  4  1  0
 10 11  2  0
 10 12  1  0
 12 13  1  0
 12 19  1  0
 13 14  2  0
 14 15  1  0
 15 16  2  0
 16 17  1  0
 17 18  2  0
 18 13  1  0
M  END
> <CMPD_CHEMBLID>
CHEMBL1994526

> <STANDARD_TYPE>
Ki

> <RELATION>
>

> <STANDARD_VALUE>
2511.89

> <STANDARD_UNITS>
nM

> <Molecular_Weight>
247.33604

$$$$

  SciTegic11272012012D

 48 54  0  0  0  0            999 V2000
    3.3694   -3.8761    0.0000 C   0  0
    3.0216   -3.3152    0.0000 C   0  0
    2.1966   -3.3407    0.0000 O   0  0
    1.7616   -2.6391    0.0000 C   0  0
    2.1529   -1.9129    0.0000 C   0  0
    1.7196   -1.2109    0.0000 C   0  0
    0.8976   -1.2355    0.0000 C   0  0
    0.5036   -1.9614    0.0000 C   0  0
    0.9369   -2.6634    0.0000 C   0  0
    0.5439   -3.3893    0.0000 N   0  0
    0.9756   -4.0929    0.0000 C   0  0
    1.6353   -4.0750    0.0000 O   0  0
    0.5826   -4.8188    0.0000 C   0  0
    1.0142   -5.5223    0.0000 C   0  0
    0.6225   -6.2484    0.0000 C   0  0
    1.0553   -6.9507    0.0000 C   0  0
    1.8800   -6.9269    0.0000 C   0  0
    2.2718   -6.2010    0.0000 C   0  0
    1.8389   -5.4986    0.0000 C   0  0
    0.4125   -0.5678    0.0000 C   0  0
   -0.4125   -0.5678    0.0000 N   0  0
   -0.6674    0.2169    0.0000 C   0  0
   -1.3342    0.7009    0.0000 S   0  0
   -1.0793    1.4855    0.0000 C   0  0
   -0.2543    1.4855    0.0000 C   0  0
    0.0000    0.7018    0.0000 N   0  0
    0.6674    0.2169    0.0000 C   0  0
    1.4524    0.4719    0.0000 C   0  0
    2.1028   -0.0311    0.0000 C   0  0
    2.8661    0.2821    0.0000 C   0  0
    2.9764    1.0997    0.0000 N   0  0
    2.3235    1.6041    0.0000 C   0  0
    2.4322    2.4223    0.0000 N   0  0
    3.1950    2.7378    0.0000 C   0  0
    3.3048    3.5554    0.0000 C   0  0
    4.0678    3.8692    0.0000 C   0  0
    4.7210    3.3653    0.0000 C   0  0
    4.6113    2.5476    0.0000 C   0  0
    3.8482    2.2339    0.0000 C   0  0
    5.2648    2.0435    0.0000 N   0  0
    6.0283    2.3560    0.0000 C   0  0
    6.6808    1.8511    0.0000 C   0  0
    6.5697    1.0336    0.0000 O   0  0
    5.8062    0.7210    0.0000 C   0  0
    5.1538    1.2260    0.0000 C   0  0
    1.5603    1.2908    0.0000 N   0  0
    1.9961    2.7575    0.0000 H   0  0
   -0.0059   -3.4042    0.0000 H   0  0
  1  2  1  0
  2  3  1  0
  3  4  1  0
  4  5  2  0
  5  6  1  0
  6  7  2  0
  7  8  1  0
  7 20  1  0
  8  9  2  0
  9  4  1  0
  9 10  1  0
 10 11  1  0
 10 48  1  0
 11 12  2  0
 11 13  1  0
 13 14  1  0
 14 15  2  0
 15 16  1  0
 16 17  2  0
 17 18  1  0
 18 19  2  0
 19 14  1  0
 20 21  1  0
 21 22  2  0
 22 23  1  0
 23 24  1  0
 24 25  2  0
 25 26  1  0
 26 22  1  0
 26 27  1  0
 27 20  2  0
 27 28  1  0
 28 29  2  0
 29 30  1  0
 30 31  2  0
 31 32  1  0
 32 33  1  0
 32 46  2  0
 33 34  1  0
 33 47  1  0
 34 35  2  0
 35 36  1  0
 36 37  2  0
 37 38  1  0
 38 39  2  0
 38 40  1  0
 39 34  1  0
 40 41  1  0
 41 42  1  0
 42 43  1  0
 43 44  1  0
 44 45  1  0
 45 40  1  0
 46 28  1  0
M  END
> <CMPD_CHEMBLID>
CHEMBL2000078

> <STANDARD_TYPE>
Ki

> <RELATION>
>

> <STANDARD_VALUE>
2511.89

> <STANDARD_UNITS>
nM

> <Molecular_Weight>
631.74662

$$$$

  SciTegic11272012012D

 32 36  0  0  0  0            999 V2000
    1.1317    0.7609    0.0000 C   0  0
    1.7729    0.9173    0.0000 C   0  0
    2.0045    1.7092    0.0000 C   0  0
    2.8061    1.9045    0.0000 C   0  0
    3.3760    1.3080    0.0000 C   0  0
    3.1444    0.5162    0.0000 C   0  0
    2.3413    0.3233    0.0000 C   0  0
    2.1731   -0.4848    0.0000 C   0  0
    1.4293   -0.8252    0.0000 C   0  0
    1.5039   -1.6398    0.0000 N   0  0
    2.3106   -1.8126    0.0000 N   0  0
    2.7242   -1.0988    0.0000 N   0  0
    3.5441   -1.0156    0.0000 C   0  0
    4.0272   -1.6849    0.0000 C   0  0
    4.8481   -1.6029    0.0000 C   0  0
    5.3297   -2.2728    0.0000 C   0  0
    4.9903   -3.0247    0.0000 C   0  0
    4.1694   -3.1069    0.0000 C   0  0
    3.6878   -2.4370    0.0000 C   0  0
    0.7145   -0.4125    0.0000 C   0  0
    0.7145    0.4125    0.0000 C   0  0
    0.0000    0.8250    0.0000 C   0  0
   -0.7145    0.4125    0.0000 C   0  0
   -1.4986    0.6674    0.0000 N   0  0
   -1.9836    0.0000    0.0000 N   0  0
   -1.4986   -0.6674    0.0000 C   0  0
   -1.7547   -1.4507    0.0000 N   0  0
   -0.7145   -0.4125    0.0000 C   0  0
    0.0000   -0.8250    0.0000 C   0  0
   -2.2929   -1.5644    0.0000 H   0  0
   -1.3874   -1.8600    0.0000 H   0  0
   -1.6685    1.1905    0.0000 H   0  0
  1  2  1  0
  2  3  2  0
  3  4  1  0
  4  5  2  0
  5  6  1  0
  6  7  2  0
  7  2  1  0
  7  8  1  0
  8  9  2  0
  9 10  1  0
  9 20  1  0
 10 11  2  0
 11 12  1  0
 12  8  1  0
 12 13  1  0
 13 14  1  0
 14 15  2  0
 15 16  1  0
 16 17  2  0
 17 18  1  0
 18 19  2  0
 19 14  1  0
 20 21  2  0
 21 22  1  0
 22 23  2  0
 23 24  1  0
 24 25  1  0
 24 32  1  0
 25 26  2  0
 26 27  1  0
 26 28  1  0
 27 30  1  0
 27 31  1  0
 28 23  1  0
 28 29  2  0
 29 20  1  0
M  END
> <CMPD_CHEMBLID>
CHEMBL2000029

> <STANDARD_TYPE>
Ki

> <RELATION>
>

> <STANDARD_VALUE>
2511.89

> <STANDARD_UNITS>
nM

> <Molecular_Weight>
380.4451

$$$$

  SciTegic11272012012D

 29 32  0  0  0  0            999 V2000
    2.9848   -5.6951    0.0000 F   0  0
    3.5580   -5.3680    0.0000 C   0  0
    4.2704   -5.7841    0.0000 C   0  0
    4.9870   -5.3752    0.0000 C   0  0
    4.9911   -4.5502    0.0000 C   0  0
    4.2787   -4.1341    0.0000 C   0  0
    4.2812   -3.3086    0.0000 N   0  0
    3.5679   -2.8933    0.0000 C   0  0
    2.9952   -3.2214    0.0000 O   0  0
    3.5703   -2.0678    0.0000 N   0  0
    2.8570   -1.6525    0.0000 C   0  0
    2.8583   -0.8275    0.0000 C   0  0
    2.1445   -0.4139    0.0000 C   0  0
    1.4293   -0.8252    0.0000 C   0  0
    1.4281   -1.6502    0.0000 C   0  0
    2.1419   -2.0639    0.0000 C   0  0
    0.7144   -0.4125    0.0000 C   0  0
    0.7144    0.4125    0.0000 C   0  0
    0.0000    0.8250    0.0000 C   0  0
   -0.7144    0.4125    0.0000 C   0  0
   -1.4986    0.6674    0.0000 C   0  0
   -1.9836    0.0000    0.0000 N   0  0
   -1.4986   -0.6674    0.0000 N   0  0
   -0.7144   -0.4125    0.0000 C   0  0
    0.0000   -0.8250    0.0000 C   0  0
    3.5622   -4.5430    0.0000 C   0  0
   -1.6685   -1.1905    0.0000 H   0  0
    4.0476   -1.7944    0.0000 H   0  0
    4.7584   -3.0352    0.0000 H   0  0
  1  2  1  0
  2  3  2  0
  3  4  1  0
  4  5  2  0
  5  6  1  0
  6  7  1  0
  6 26  2  0
  7  8  1  0
  7 29  1  0
  8  9  2  0
  8 10  1  0
 10 11  1  0
 10 28  1  0
 11 12  2  0
 12 13  1  0
 13 14  2  0
 14 15  1  0
 14 17  1  0
 15 16  2  0
 16 11  1  0
 17 18  2  0
 18 19  1  0
 19 20  2  0
 20 21  1  0
 21 22  2  0
 22 23  1  0
 23 24  1  0
 23 27  1  0
 24 20  1  0
 24 25  2  0
 25 17  1  0
 26  2  1  0
M  END
> <CMPD_CHEMBLID>
CHEMBL1969942

> <STANDARD_TYPE>
Ki

> <RELATION>
>

> <STANDARD_VALUE>
2511.89

> <STANDARD_UNITS>
nM

> <Molecular_Weight>
346.3577

$$$$

  SciTegic11272012012D

 29 32  0  0  0  0            999 V2000
    4.2872   -3.9627    0.0000 O   0  5
    4.2861   -3.3027    0.0000 N   0  3
    4.8572   -2.9719    0.0000 O   0  0
    3.5704   -2.8914    0.0000 C   0  0
    2.8559   -3.3039    0.0000 C   0  0
    2.1414   -2.8914    0.0000 C   0  0
    2.1413   -2.0664    0.0000 C   0  0
    1.4273   -1.6522    0.0000 N   0  0
    1.4285   -0.8267    0.0000 C   0  0
    2.0006   -0.4977    0.0000 O   0  0
    0.7145   -0.4125    0.0000 N   0  0
    0.7145    0.4125    0.0000 C   0  0
    0.0000    0.8250    0.0000 C   0  0
   -0.7145    0.4125    0.0000 C   0  0
   -1.4987    0.6674    0.0000 N   0  0
   -1.9836    0.0000    0.0000 C   0  0
   -2.8035   -0.0859    0.0000 C   0  0
   -3.1914    0.4482    0.0000 Cl  0  0
   -3.1391   -0.8395    0.0000 C   0  0
   -2.6541   -1.5070    0.0000 C   0  0
   -2.9226   -2.1099    0.0000 Cl  0  0
   -1.8337   -1.4207    0.0000 C   0  0
   -1.4987   -0.6674    0.0000 C   0  0
   -0.7145   -0.4125    0.0000 C   0  0
    0.0000   -0.8250    0.0000 C   0  0
    2.8559   -1.6539    0.0000 C   0  0
    3.5704   -2.0664    0.0000 C   0  0
   -1.6686    1.1905    0.0000 H   0  0
    0.9505   -1.9263    0.0000 H   0  0
  1  2  1  0
  2  3  2  0
  2  4  1  0
  4  5  2  0
  5  6  1  0
  6  7  2  0
  7  8  1  0
  7 26  1  0
  8  9  1  0
  8 29  1  0
  9 10  2  0
  9 11  1  0
 11 12  1  0
 12 13  1  0
 13 14  1  0
 14 15  1  0
 15 16  1  0
 15 28  1  0
 16 17  2  0
 17 18  1  0
 17 19  1  0
 19 20  2  0
 20 21  1  0
 20 22  1  0
 22 23  2  0
 23 16  1  0
 23 24  1  0
 24 14  2  0
 24 25  1  0
 25 11  1  0
 26 27  2  0
 27  4  1  0
M  CHG  2   1  -1   2   1
M  END
> <CMPD_CHEMBLID>
CHEMBL1976196

> <STANDARD_TYPE>
Ki

> <RELATION>
=

> <STANDARD_VALUE>
2511.89

> <STANDARD_UNITS>
nM

> <Molecular_Weight>
405.23476

$$$$

  SciTegic11272012012D

 46 52  0  0  0  0            999 V2000
    2.1082   -3.2008    0.0000 Cl  0  0
    1.7616   -2.6391    0.0000 C   0  0
    2.1529   -1.9129    0.0000 C   0  0
    1.7196   -1.2109    0.0000 C   0  0
    0.8976   -1.2355    0.0000 C   0  0
    0.5036   -1.9614    0.0000 C   0  0
    0.9369   -2.6634    0.0000 C   0  0
    0.5439   -3.3893    0.0000 N   0  0
    0.9756   -4.0929    0.0000 C   0  0
    1.6353   -4.0750    0.0000 O   0  0
    0.5826   -4.8188    0.0000 C   0  0
    1.0142   -5.5223    0.0000 C   0  0
    0.6225   -6.2484    0.0000 C   0  0
    1.0553   -6.9507    0.0000 C   0  0
    1.8800   -6.9269    0.0000 C   0  0
    2.2718   -6.2010    0.0000 C   0  0
    1.8389   -5.4986    0.0000 C   0  0
    0.4125   -0.5678    0.0000 C   0  0
   -0.4125   -0.5678    0.0000 N   0  0
   -0.6674    0.2169    0.0000 C   0  0
   -1.3342    0.7009    0.0000 S   0  0
   -1.0793    1.4855    0.0000 C   0  0
   -0.2543    1.4855    0.0000 C   0  0
    0.0000    0.7018    0.0000 N   0  0
    0.6674    0.2169    0.0000 C   0  0
    1.4524    0.4719    0.0000 C   0  0
    2.1028   -0.0311    0.0000 C   0  0
    2.8661    0.2821    0.0000 C   0  0
    2.9764    1.0997    0.0000 N   0  0
    2.3235    1.6041    0.0000 C   0  0
    2.4322    2.4223    0.0000 N   0  0
    3.1950    2.7378    0.0000 C   0  0
    3.3048    3.5554    0.0000 C   0  0
    4.0678    3.8692    0.0000 C   0  0
    4.7210    3.3653    0.0000 C   0  0
    4.6113    2.5476    0.0000 C   0  0
    3.8482    2.2339    0.0000 C   0  0
    5.2648    2.0435    0.0000 N   0  0
    6.0283    2.3560    0.0000 C   0  0
    6.6808    1.8511    0.0000 C   0  0
    6.5697    1.0336    0.0000 O   0  0
    5.8062    0.7210    0.0000 C   0  0
    5.1538    1.2260    0.0000 C   0  0
    1.5603    1.2908    0.0000 N   0  0
    1.9961    2.7575    0.0000 H   0  0
   -0.0059   -3.4042    0.0000 H   0  0
  1  2  1  0
  2  3  2  0
  3  4  1  0
  4  5  2  0
  5  6  1  0
  5 18  1  0
  6  7  2  0
  7  2  1  0
  7  8  1  0
  8  9  1  0
  8 46  1  0
  9 10  2  0
  9 11  1  0
 11 12  1  0
 12 13  2  0
 13 14  1  0
 14 15  2  0
 15 16  1  0
 16 17  2  0
 17 12  1  0
 18 19  1  0
 19 20  2  0
 20 21  1  0
 21 22  1  0
 22 23  2  0
 23 24  1  0
 24 20  1  0
 24 25  1  0
 25 18  2  0
 25 26  1  0
 26 27  2  0
 27 28  1  0
 28 29  2  0
 29 30  1  0
 30 31  1  0
 30 44  2  0
 31 32  1  0
 31 45  1  0
 32 33  2  0
 33 34  1  0
 34 35  2  0
 35 36  1  0
 36 37  2  0
 36 38  1  0
 37 32  1  0
 38 39  1  0
 39 40  1  0
 40 41  1  0
 41 42  1  0
 42 43  1  0
 43 38  1  0
 44 26  1  0
M  END
> <CMPD_CHEMBLID>
CHEMBL2005482

> <STANDARD_TYPE>
Ki

> <RELATION>
>

> <STANDARD_VALUE>
2511.89

> <STANDARD_UNITS>
nM

> <Molecular_Weight>
622.13912

$$$$

  SciTegic11272012012D

 37 40  0  0  0  0            999 V2000
    4.3969    1.8684    0.0000 C   0  0
    4.7864    1.3355    0.0000 C   0  0
    5.4425    1.4066    0.0000 C   0  0
    5.0530    1.9393    0.0000 C   0  0
    4.4538    0.5816    0.0000 C   0  0
    3.6474    0.4072    0.0000 C   0  0
    3.5745   -0.4075    0.0000 C   0  0
    2.8602   -0.8213    0.0000 N   0  0
    2.1445   -0.4100    0.0000 C   0  0
    2.1433    0.2500    0.0000 O   0  0
    1.4302   -0.8237    0.0000 C   0  0
    1.4313   -1.4837    0.0000 O   0  0
    0.7145   -0.4125    0.0000 C   0  0
    0.7145    0.4125    0.0000 C   0  0
    0.0000    0.8250    0.0000 C   0  0
   -0.7145    0.4125    0.0000 C   0  0
   -0.7145   -0.4125    0.0000 C   0  0
   -1.4290   -0.8250    0.0000 C   0  0
   -1.4290   -1.6500    0.0000 C   0  0
   -0.7145   -2.0625    0.0000 C   0  0
    0.0000   -1.6500    0.0000 C   0  0
    0.0000   -0.8250    0.0000 C   0  0
    4.3189   -0.7465    0.0000 N   0  0
    4.8688   -0.1315    0.0000 N   0  0
    4.4885   -1.5543    0.0000 C   0  0
    3.9213   -2.1494    0.0000 C   0  0
    4.1544   -2.9408    0.0000 C   0  0
    4.9564   -3.1346    0.0000 C   0  0
    5.1912   -3.9260    0.0000 O   0  0
    5.9939   -4.1187    0.0000 C   0  0
    6.2288   -4.9101    0.0000 C   0  0
    5.7746   -5.3889    0.0000 O   0  0
    7.0314   -5.1029    0.0000 O   0  0
    5.5252   -2.5370    0.0000 C   0  0
    5.2921   -1.7457    0.0000 C   0  0
    7.1879   -5.6301    0.0000 H   0  0
    2.8612   -1.3713    0.0000 H   0  0
  1  2  1  0
  2  3  1  0
  2  4  1  0
  2  5  1  0
  5  6  1  0
  6  7  2  0
  7  8  1  0
  7 23  1  0
  8  9  1  0
  8 37  1  0
  9 10  2  0
  9 11  1  0
 11 12  2  0
 11 13  1  0
 13 14  2  0
 14 15  1  0
 15 16  2  0
 16 17  1  0
 17 18  2  0
 18 19  1  0
 19 20  2  0
 20 21  1  0
 21 22  2  0
 22 13  1  0
 22 17  1  0
 23 24  1  0
 23 25  1  0
 24  5  2  0
 25 26  2  0
 26 27  1  0
 27 28  2  0
 28 29  1  0
 28 34  1  0
 29 30  1  0
 30 31  1  0
 31 32  2  0
 31 33  1  0
 33 36  1  0
 34 35  2  0
 35 25  1  0
M  END
> <CMPD_CHEMBLID>
CHEMBL2005699

> <STANDARD_TYPE>
Ki

> <RELATION>
>

> <STANDARD_VALUE>
2511.89

> <STANDARD_UNITS>
nM

> <Molecular_Weight>
471.5045

$$$$

  SciTegic11272012012D

 32 34  0  0  0  0            999 V2000
    1.2861   -0.7425    0.0000 C   0  0
    0.7144   -0.4125    0.0000 C   0  0
    0.7144    0.4125    0.0000 C   0  0
    0.0000    0.8250    0.0000 C   0  0
    0.0000    1.4850    0.0000 O   0  0
   -0.7144    0.4125    0.0000 N   0  0
   -0.7144   -0.4125    0.0000 N   0  0
    0.0000   -0.8250    0.0000 C   0  0
    0.0000   -1.6504    0.0000 C   0  0
   -0.7138   -2.0641    0.0000 C   0  0
   -0.7125   -2.8891    0.0000 C   0  0
    0.0026   -3.3005    0.0000 C   0  0
    0.0056   -4.1259    0.0000 N   0  0
    0.7218   -4.5365    0.0000 C   0  0
    1.2922   -4.2046    0.0000 O   0  0
    0.7247   -5.3620    0.0000 N   0  0
    1.4408   -5.7725    0.0000 C   0  0
    2.1533   -5.3564    0.0000 C   0  0
    2.8698   -5.7653    0.0000 C   0  0
    2.8740   -6.5903    0.0000 C   0  0
    2.1616   -7.0064    0.0000 C   0  0
    1.4451   -6.5975    0.0000 C   0  0
    0.8752   -6.9304    0.0000 F   0  0
    3.5826   -5.3490    0.0000 C   0  0
    3.5797   -4.6890    0.0000 F   0  0
    4.1557   -5.6763    0.0000 F   0  0
    4.1527   -5.0164    0.0000 F   0  0
    0.7164   -2.8868    0.0000 C   0  0
    0.7151   -2.0618    0.0000 C   0  0
    0.2494   -5.6385    0.0000 H   0  0
   -0.4698   -4.4025    0.0000 H   0  0
   -1.1908    0.6875    0.0000 H   0  0
  1  2  1  0
  2  3  2  0
  3  4  1  0
  4  5  2  0
  4  6  1  0
  6  7  1  0
  6 32  1  0
  7  8  2  0
  8  2  1  0
  8  9  1  0
  9 10  2  0
 10 11  1  0
 11 12  2  0
 12 13  1  0
 12 28  1  0
 13 14  1  0
 13 31  1  0
 14 15  2  0
 14 16  1  0
 16 17  1  0
 16 30  1  0
 17 18  2  0
 18 19  1  0
 19 20  2  0
 19 24  1  0
 20 21  1  0
 21 22  2  0
 22 17  1  0
 22 23  1  0
 24 25  1  0
 24 26  1  0
 24 27  1  0
 28 29  2  0
 29  9  1  0
M  END
> <CMPD_CHEMBLID>
CHEMBL1965033

> <STANDARD_TYPE>
Ki

> <RELATION>
>

> <STANDARD_VALUE>
2511.89

> <STANDARD_UNITS>
nM

> <Molecular_Weight>
406.33367

$$$$

  SciTegic11272012012D

 41 45  0  0  0  0            999 V2000
   -0.3789   -2.2450    0.0000 N   0  0
    0.1713   -1.6316    0.0000 C   0  0
    0.9918   -1.7178    0.0000 N   0  0
    1.3273   -0.9641    0.0000 N   0  0
    0.7144   -0.4125    0.0000 C   0  0
    0.7144    0.4125    0.0000 C   0  0
    1.4285    0.8267    0.0000 O   0  0
    1.4273    1.6521    0.0000 C   0  0
    2.1413    2.0663    0.0000 C   0  0
    2.1402    2.8918    0.0000 C   0  0
    2.8542    3.3060    0.0000 N   0  0
    2.9300    4.1205    0.0000 C   0  0
    3.7369    4.2920    0.0000 C   0  0
    4.1494    3.5775    0.0000 C   0  0
    3.5974    2.9644    0.0000 C   0  0
    0.0000    0.8250    0.0000 C   0  0
   -0.7144    0.4125    0.0000 C   0  0
   -0.7144   -0.4125    0.0000 C   0  0
   -1.4293   -0.8252    0.0000 C   0  0
   -2.1445   -0.4139    0.0000 C   0  0
   -2.8583   -0.8275    0.0000 C   0  0
   -2.8570   -1.6525    0.0000 C   0  0
   -3.5703   -2.0678    0.0000 N   0  0
   -3.5679   -2.8933    0.0000 C   0  0
   -2.9952   -3.2214    0.0000 O   0  0
   -4.2812   -3.3086    0.0000 N   0  0
   -4.2787   -4.1341    0.0000 C   0  0
   -4.9911   -4.5503    0.0000 C   0  0
   -4.9869   -5.3752    0.0000 C   0  0
   -4.2704   -5.7841    0.0000 C   0  0
   -3.5580   -5.3680    0.0000 C   0  0
   -2.9847   -5.6951    0.0000 Cl  0  0
   -3.5621   -4.5430    0.0000 C   0  0
   -2.1419   -2.0639    0.0000 C   0  0
   -1.4280   -1.6502    0.0000 C   0  0
    0.0000   -0.8250    0.0000 C   0  0
   -4.7584   -3.0352    0.0000 H   0  0
   -4.0476   -1.7944    0.0000 H   0  0
    1.8653   -0.8497    0.0000 H   0  0
   -0.2083   -2.7679    0.0000 H   0  0
   -0.9171   -2.1315    0.0000 H   0  0
  1  2  1  0
  1 40  1  0
  1 41  1  0
  2  3  2  0
  3  4  1  0
  4  5  1  0
  4 39  1  0
  5  6  2  0
  6  7  1  0
  6 16  1  0
  7  8  1  0
  8  9  1  0
  9 10  1  0
 10 11  1  0
 11 12  1  0
 12 13  2  0
 13 14  1  0
 14 15  2  0
 15 11  1  0
 16 17  2  0
 17 18  1  0
 18 19  1  0
 18 36  2  0
 19 20  2  0
 20 21  1  0
 21 22  2  0
 22 23  1  0
 22 34  1  0
 23 24  1  0
 23 38  1  0
 24 25  2  0
 24 26  1  0
 26 27  1  0
 26 37  1  0
 27 28  2  0
 28 29  1  0
 29 30  2  0
 30 31  1  0
 31 32  1  0
 31 33  2  0
 33 27  1  0
 34 35  2  0
 35 19  1  0
 36  2  1  0
 36  5  1  0
M  END
> <CMPD_CHEMBLID>
CHEMBL1965387

> <STANDARD_TYPE>
Ki

> <RELATION>
>

> <STANDARD_VALUE>
2511.89

> <STANDARD_UNITS>
nM

> <Molecular_Weight>
500.9794

$$$$

  SciTegic11272012012D

 22 23  0  0  0  0            999 V2000
   -1.9984   -4.5885    0.0000 C   0  0
   -1.6075   -4.0568    0.0000 C   0  0
   -0.7870   -4.1471    0.0000 C   0  0
   -0.2981   -3.4820    0.0000 C   0  0
    0.5224   -3.5723    0.0000 N   0  0
    1.0105   -2.9083    0.0000 C   0  0
    1.8355   -2.9112    0.0000 N   0  0
    2.0931   -2.1274    0.0000 C   0  0
    2.8763   -1.8711    0.0000 N   0  0
    1.4273   -1.6522    0.0000 C   0  0
    0.7582   -2.1228    0.0000 S   0  0
    1.4285   -0.8267    0.0000 C   0  0
    2.0007   -0.4977    0.0000 O   0  0
    0.7145   -0.4125    0.0000 C   0  0
    0.7145    0.4125    0.0000 C   0  0
    0.0000    0.8250    0.0000 C   0  0
   -0.7145    0.4125    0.0000 C   0  0
   -0.7145   -0.4125    0.0000 C   0  0
    0.0000   -0.8250    0.0000 C   0  0
    3.2860   -2.2380    0.0000 H   0  0
    2.9893   -1.3328    0.0000 H   0  0
    0.7435   -4.0759    0.0000 H   0  0
  1  2  1  0
  2  3  1  0
  3  4  1  0
  4  5  1  0
  5  6  1  0
  5 22  1  0
  6  7  2  0
  7  8  1  0
  8  9  1  0
  8 10  2  0
  9 20  1  0
  9 21  1  0
 10 11  1  0
 10 12  1  0
 11  6  1  0
 12 13  2  0
 12 14  1  0
 14 15  2  0
 15 16  1  0
 16 17  2  0
 17 18  1  0
 18 19  2  0
 19 14  1  0
M  END
> <CMPD_CHEMBLID>
CHEMBL2007479

> <STANDARD_TYPE>
Ki

> <RELATION>
>

> <STANDARD_VALUE>
2511.89

> <STANDARD_UNITS>
nM

> <Molecular_Weight>
275.36928

$$$$

  SciTegic11272012012D

 31 33  0  0  0  0            999 V2000
   -0.0249   -6.4315    0.0000 C   0  0
   -0.0212   -5.7715    0.0000 C   0  0
    0.6956   -5.3623    0.0000 C   0  0
    0.7002   -4.5369    0.0000 N   0  0
    1.4171   -4.1276    0.0000 C   0  0
    1.9869   -4.4606    0.0000 O   0  0
    1.4216   -3.3022    0.0000 C   0  0
    2.1375   -2.8922    0.0000 C   0  0
    2.1403   -2.0672    0.0000 C   0  0
    1.4273   -1.6521    0.0000 C   0  0
    1.4285   -0.8267    0.0000 N   0  0
    0.7144   -0.4125    0.0000 C   0  0
    0.7144    0.4125    0.0000 N   0  0
    0.0000    0.8250    0.0000 C   0  0
    0.0017    1.6504    0.0000 N   0  0
    0.7171    2.0622    0.0000 C   0  0
    0.7188    2.8876    0.0000 C   0  0
    1.2908    3.2168    0.0000 F   0  0
    0.1478    3.2186    0.0000 F   0  0
    0.7199    3.5476    0.0000 F   0  0
   -0.7144    0.4125    0.0000 C   0  0
   -1.4986    0.6674    0.0000 S   0  0
   -1.9836    0.0000    0.0000 C   0  0
   -1.4986   -0.6674    0.0000 C   0  0
   -0.7144   -0.4125    0.0000 C   0  0
    0.0000   -0.8250    0.0000 N   0  0
    0.7114   -2.0622    0.0000 C   0  0
    0.7086   -2.8872    0.0000 C   0  0
   -0.4742    1.9263    0.0000 H   0  0
    1.9053   -0.5525    0.0000 H   0  0
    0.2253   -4.2594    0.0000 H   0  0
  1  2  1  0
  2  3  1  0
  3  4  1  0
  4  5  1  0
  4 31  1  0
  5  6  2  0
  5  7  1  0
  7  8  2  0
  8  9  1  0
  9 10  2  0
 10 11  1  0
 10 27  1  0
 11 12  1  0
 11 30  1  0
 12 13  2  0
 13 14  1  0
 14 15  1  0
 14 21  2  0
 15 16  1  0
 15 29  1  0
 16 17  1  0
 17 18  1  0
 17 19  1  0
 17 20  1  0
 21 22  1  0
 22 23  1  0
 23 24  2  0
 24 25  1  0
 25 21  1  0
 25 26  2  0
 26 12  1  0
 27 28  2  0
 28  7  1  0
M  END
> <CMPD_CHEMBLID>
CHEMBL2007559

> <STANDARD_TYPE>
Ki

> <RELATION>
>

> <STANDARD_VALUE>
2511.89

> <STANDARD_UNITS>
nM

> <Molecular_Weight>
409.42863

$$$$

  SciTegic11272012012D

 33 36  0  0  0  0            999 V2000
    1.2861   -0.7425    0.0000 C   0  0
    0.7145   -0.4125    0.0000 C   0  0
    0.7145    0.4125    0.0000 N   0  0
    0.0000    0.8250    0.0000 C   0  0
   -0.7145    0.4125    0.0000 C   0  0
   -0.7145   -0.4125    0.0000 N   0  0
   -1.3273   -0.9642    0.0000 C   0  0
   -2.1347   -0.7925    0.0000 C   0  0
   -2.4465   -0.0316    0.0000 C   0  0
   -3.2641    0.0788    0.0000 C   0  0
   -3.7684   -0.5742    0.0000 N   0  0
   -3.4552   -1.3373    0.0000 C   0  0
   -3.9585   -1.9917    0.0000 N   0  0
   -3.6440   -2.7549    0.0000 C   0  0
   -4.1473   -3.4092    0.0000 C   0  0
   -4.8015   -3.3220    0.0000 C   0  0
   -4.3990   -2.7990    0.0000 C   0  0
   -3.8328   -4.1724    0.0000 C   0  0
   -4.3360   -4.8267    0.0000 O   0  0
   -2.6376   -1.4477    0.0000 N   0  0
   -0.9918   -1.7178    0.0000 C   0  0
   -0.1713   -1.6316    0.0000 N   0  0
    0.0000   -0.8250    0.0000 C   0  0
   -1.4045   -2.4327    0.0000 C   0  0
   -0.9367   -3.1134    0.0000 C   0  0
   -1.2943   -3.8569    0.0000 C   0  0
   -2.1169   -3.9190    0.0000 C   0  0
   -2.4030   -4.5138    0.0000 F   0  0
   -2.5821   -3.2376    0.0000 C   0  0
   -2.2245   -2.4941    0.0000 C   0  0
   -2.5964   -1.9488    0.0000 F   0  0
   -4.1265   -5.3352    0.0000 H   0  0
   -4.5037   -1.9190    0.0000 H   0  0
  1  2  1  0
  2  3  2  0
  3  4  1  0
  4  5  2  0
  5  6  1  0
  6  7  1  0
  7  8  1  0
  7 21  2  0
  8  9  2  0
  9 10  1  0
 10 11  2  0
 11 12  1  0
 12 13  1  0
 12 20  2  0
 13 14  1  0
 13 33  1  0
 14 15  1  0
 15 16  1  0
 15 17  1  0
 15 18  1  0
 18 19  1  0
 19 32  1  0
 20  8  1  0
 21 22  1  0
 21 24  1  0
 22 23  2  0
 23  2  1  0
 23  6  1  0
 24 25  2  0
 25 26  1  0
 26 27  2  0
 27 28  1  0
 27 29  1  0
 29 30  2  0
 30 24  1  0
 30 31  1  0
M  END
> <CMPD_CHEMBLID>
CHEMBL1991678

> <STANDARD_TYPE>
Ki

> <RELATION>
>

> <STANDARD_VALUE>
2511.89

> <STANDARD_UNITS>
nM

> <Molecular_Weight>
424.44649

$$$$

  SciTegic11272012012D

 40 44  0  0  0  0            999 V2000
    2.0013   -0.4930    0.0000 C   0  0
    1.4302   -0.8237    0.0000 O   0  0
    0.7144   -0.4125    0.0000 C   0  0
    0.7144    0.4125    0.0000 C   0  0
    0.0000    0.8250    0.0000 C   0  0
    0.0000    1.6500    0.0000 C   0  0
    0.7140    2.0642    0.0000 N   0  0
    0.7128    2.8896    0.0000 C   0  0
    1.4259    3.3047    0.0000 C   0  0
    1.4230    4.1297    0.0000 C   0  0
    0.7071    4.5397    0.0000 C   0  0
    0.7025    5.3651    0.0000 N   0  0
   -0.0144    5.7744    0.0000 C   0  0
   -0.5842    5.4414    0.0000 O   0  0
   -0.0189    6.5998    0.0000 C   0  0
   -0.7348    7.0099    0.0000 C   0  0
   -0.7377    7.8349    0.0000 C   0  0
   -0.0246    8.2498    0.0000 C   0  0
    0.6912    7.8399    0.0000 C   0  0
    0.6942    7.0149    0.0000 C   0  0
   -0.0059    4.1247    0.0000 C   0  0
   -0.0031    3.2997    0.0000 C   0  0
   -0.7145    2.0625    0.0000 N   0  0
   -1.4290    1.6500    0.0000 C   0  0
   -1.4290    0.8250    0.0000 N   0  0
   -0.7144    0.4125    0.0000 C   0  0
   -0.7144   -0.4125    0.0000 C   0  0
    0.0000   -0.8250    0.0000 C   0  0
   -0.0017   -1.6504    0.0000 O   0  0
   -0.7171   -2.0622    0.0000 C   0  0
   -0.7188   -2.8876    0.0000 C   0  0
   -1.4343   -3.2993    0.0000 C   0  0
   -1.4360   -4.1248    0.0000 N   0  0
   -2.1504   -4.5373    0.0000 C   0  0
   -2.1504   -5.3623    0.0000 C   0  0
   -1.4360   -5.7748    0.0000 O   0  0
   -0.7215   -5.3623    0.0000 C   0  0
   -0.7215   -4.5373    0.0000 C   0  0
    1.1774    5.6426    0.0000 H   0  0
    1.1908    1.7900    0.0000 H   0  0
  1  2  1  0
  2  3  1  0
  3  4  2  0
  4  5  1  0
  5  6  2  0
  6  7  1  0
  6 23  1  0
  7  8  1  0
  7 40  1  0
  8  9  2  0
  9 10  1  0
 10 11  2  0
 11 12  1  0
 11 21  1  0
 12 13  1  0
 12 39  1  0
 13 14  2  0
 13 15  1  0
 15 16  2  0
 16 17  1  0
 17 18  2  0
 18 19  1  0
 19 20  2  0
 20 15  1  0
 21 22  2  0
 22  8  1  0
 23 24  2  0
 24 25  1  0
 25 26  2  0
 26  5  1  0
 26 27  1  0
 27 28  2  0
 28  3  1  0
 28 29  1  0
 29 30  1  0
 30 31  1  0
 31 32  1  0
 32 33  1  0
 33 34  1  0
 34 35  1  0
 35 36  1  0
 36 37  1  0
 37 38  1  0
 38 33  1  0
M  END
> <CMPD_CHEMBLID>
CHEMBL202721

> <STANDARD_TYPE>
Ki

> <RELATION>
>

> <STANDARD_VALUE>
2511.89

> <STANDARD_UNITS>
nM

> <Molecular_Weight>
513.58754

$$$$

  SciTegic11272012012D

 37 42  0  0  0  0            999 V2000
   -0.4180   -4.4290    0.0000 N   0  0
   -0.6741   -3.6442    0.0000 C   0  0
   -0.1229   -3.0298    0.0000 C   0  0
   -0.3790   -2.2450    0.0000 C   0  0
    0.1713   -1.6316    0.0000 N   0  0
    0.9918   -1.7178    0.0000 C   0  0
    1.3273   -0.9642    0.0000 C   0  0
    2.1347   -0.7924    0.0000 C   0  0
    2.7291   -1.3607    0.0000 C   0  0
    3.5209   -1.1288    0.0000 C   0  0
    4.1178   -1.6989    0.0000 C   0  0
    4.0002   -2.5084    0.0000 C   0  0
    4.7440   -2.8643    0.0000 C   0  0
    4.9771   -3.6557    0.0000 C   0  0
    5.7790   -3.8495    0.0000 C   0  0
    6.3478   -3.2520    0.0000 C   0  0
    6.1147   -2.4606    0.0000 C   0  0
    5.3128   -2.2667    0.0000 C   0  0
    4.9205   -1.5414    0.0000 S   0  0
    3.7159   -0.3272    0.0000 C   0  0
    4.4418    0.0639    0.0000 N   0  0
    4.2940    0.8756    0.0000 N   0  0
    3.4764    0.9858    0.0000 C   0  0
    3.1192    0.2426    0.0000 C   0  0
    2.3275    0.0107    0.0000 C   0  0
    0.7145   -0.4125    0.0000 C   0  0
    0.7145    0.4125    0.0000 N   0  0
    0.0000    0.8250    0.0000 C   0  0
   -0.0017    1.6505    0.0000 N   0  0
   -0.7145    0.4125    0.0000 N   0  0
   -0.7145   -0.4125    0.0000 C   0  0
    0.0000   -0.8250    0.0000 C   0  0
   -0.4784    1.9248    0.0000 H   0  0
    0.4741    1.9263    0.0000 H   0  0
    4.9375   -0.1745    0.0000 H   0  0
   -0.7853   -4.8384    0.0000 H   0  0
    0.1201   -4.5425    0.0000 H   0  0
  1  2  1  0
  1 36  1  0
  1 37  1  0
  2  3  1  0
  3  4  1  0
  4  5  1  0
  5  6  1  0
  6  7  2  0
  7  8  1  0
  7 26  1  0
  8  9  2  0
  9 10  1  0
 10 11  1  0
 10 20  2  0
 11 12  2  0
 12 13  1  0
 13 14  2  0
 14 15  1  0
 15 16  2  0
 16 17  1  0
 17 18  2  0
 18 13  1  0
 18 19  1  0
 19 11  1  0
 20 21  1  0
 21 22  1  0
 21 35  1  0
 22 23  2  0
 23 24  1  0
 24 20  1  0
 24 25  2  0
 25  8  1  0
 26 27  2  0
 27 28  1  0
 28 29  1  0
 28 30  2  0
 29 33  1  0
 29 34  1  0
 30 31  1  0
 31 32  2  0
 32  5  1  0
 32 26  1  0
M  END
> <CMPD_CHEMBLID>
CHEMBL592030

> <STANDARD_TYPE>
Ki

> <RELATION>
>

> <STANDARD_VALUE>
2511.89

> <STANDARD_UNITS>
nM

> <Molecular_Weight>
439.53544

$$$$

  SciTegic11272012012D

 45 49  0  0  0  0            999 V2000
    1.2861   -0.7425    0.0000 C   0  0
    0.7144   -0.4125    0.0000 N   0  0
    0.7144    0.4125    0.0000 C   0  0
    0.0000    0.8250    0.0000 C   0  0
   -0.7144    0.4125    0.0000 C   0  0
   -0.7144   -0.4125    0.0000 C   0  0
   -1.4302   -0.8238    0.0000 N   0  0
   -2.1444   -0.4100    0.0000 C   0  0
   -2.8604   -0.8200    0.0000 C   0  0
   -3.5735   -0.4051    0.0000 C   0  0
   -3.5706    0.4199    0.0000 C   0  0
   -2.8547    0.8299    0.0000 C   0  0
   -2.1416    0.4150    0.0000 N   0  0
   -4.2832    0.8366    0.0000 C   0  0
   -4.8564    0.5096    0.0000 O   0  0
   -4.2792    1.6620    0.0000 N   0  0
   -4.9907    2.0795    0.0000 C   0  0
   -4.9850    2.9045    0.0000 C   0  0
   -4.2677    3.3120    0.0000 O   0  0
   -3.5561    2.8946    0.0000 C   0  0
   -3.5618    2.0696    0.0000 C   0  0
    0.0000   -0.8250    0.0000 C   0  0
    0.0000   -1.4850    0.0000 O   0  0
    0.0000    1.6504    0.0000 C   0  0
   -0.7151    2.0618    0.0000 C   0  0
   -0.7164    2.8868    0.0000 C   0  0
   -0.0026    3.3005    0.0000 C   0  0
    0.7125    2.8891    0.0000 C   0  0
    1.4259    3.3045    0.0000 N   0  0
    1.4233    4.1299    0.0000 C   0  0
    0.8507    4.4580    0.0000 O   0  0
    2.1367    4.5452    0.0000 C   0  0
    2.1354    5.3702    0.0000 C   0  0
    2.8492    5.7839    0.0000 C   0  0
    3.5644    5.3726    0.0000 C   0  0
    3.5657    4.5476    0.0000 C   0  0
    2.8519    4.1339    0.0000 C   0  0
    4.2786    5.7864    0.0000 C   0  0
    4.2779    6.4464    0.0000 C   0  0
    4.8506    5.4571    0.0000 C   0  0
    4.8498    6.1171    0.0000 C   0  0
    0.7138    2.0641    0.0000 C   0  0
    1.2859    1.7350    0.0000 C   0  0
    1.9031    3.0310    0.0000 H   0  0
   -1.4312   -1.3738    0.0000 H   0  0
  1  2  1  0
  2  3  1  0
  3  4  2  0
  4  5  1  0
  4 24  1  0
  5  6  2  0
  6  7  1  0
  6 22  1  0
  7  8  1  0
  7 45  1  0
  8  9  2  0
  9 10  1  0
 10 11  2  0
 11 12  1  0
 11 14  1  0
 12 13  2  0
 13  8  1  0
 14 15  2  0
 14 16  1  0
 16 17  1  0
 17 18  1  0
 18 19  1  0
 19 20  1  0
 20 21  1  0
 21 16  1  0
 22  2  1  0
 22 23  2  0
 24 25  2  0
 25 26  1  0
 26 27  2  0
 27 28  1  0
 28 29  1  0
 28 42  2  0
 29 30  1  0
 29 44  1  0
 30 31  2  0
 30 32  1  0
 32 33  2  0
 33 34  1  0
 34 35  2  0
 35 36  1  0
 35 38  1  0
 36 37  2  0
 37 32  1  0
 38 39  1  0
 38 40  1  0
 38 41  1  0
 42 24  1  0
 42 43  1  0
M  END
> <CMPD_CHEMBLID>
CHEMBL1973138

> <STANDARD_TYPE>
Ki

> <RELATION>
>

> <STANDARD_VALUE>
2511.89

> <STANDARD_UNITS>
nM

> <Molecular_Weight>
579.68868

$$$$

  SciTegic11272012012D

 23 25  0  0  0  0            999 V2000
    2.0009   -1.1552    0.0000 N   0  0
    1.4293   -0.8252    0.0000 C   0  0
    0.7144   -0.4125    0.0000 C   0  0
    0.7144    0.4125    0.0000 C   0  0
    0.0000    0.8250    0.0000 C   0  0
   -0.7144    0.4125    0.0000 C   0  0
   -0.7144   -0.4125    0.0000 C   0  0
    0.0000   -0.8250    0.0000 C   0  0
   -0.0017   -1.6504    0.0000 N   0  0
   -0.7171   -2.0622    0.0000 C   0  0
   -0.7188   -2.8876    0.0000 C   0  0
   -1.4333   -3.3002    0.0000 C   0  0
   -1.4333   -4.1252    0.0000 C   0  0
   -0.7188   -4.5377    0.0000 C   0  0
   -0.0044   -4.1252    0.0000 C   0  0
   -0.0043   -3.3002    0.0000 C   0  0
   -1.4293    0.8252    0.0000 C   0  0
   -1.4307    1.6502    0.0000 C   0  0
   -2.1458    2.0616    0.0000 C   0  0
   -2.8596    1.6480    0.0000 N   0  0
   -2.8583    0.8230    0.0000 C   0  0
   -2.1432    0.4116    0.0000 C   0  0
    0.4742   -1.9263    0.0000 H   0  0
  1  2  3  0
  2  3  1  0
  3  4  2  0
  4  5  1  0
  5  6  2  0
  6  7  1  0
  6 17  1  0
  7  8  2  0
  8  3  1  0
  8  9  1  0
  9 10  1  0
  9 23  1  0
 10 11  1  0
 11 12  2  0
 12 13  1  0
 13 14  2  0
 14 15  1  0
 15 16  2  0
 16 11  1  0
 17 18  2  0
 18 19  1  0
 19 20  2  0
 20 21  1  0
 21 22  2  0
 22 17  1  0
M  END
> <CMPD_CHEMBLID>
CHEMBL1967992

> <STANDARD_TYPE>
Ki

> <RELATION>
>

> <STANDARD_VALUE>
2511.89

> <STANDARD_UNITS>
nM

> <Molecular_Weight>
285.3425

$$$$

  SciTegic11272012012D

 29 32  0  0  0  0            999 V2000
   -1.2952   -4.1958    0.0000 F   0  0
   -0.7253   -4.5287    0.0000 C   0  0
   -0.7295   -5.3537    0.0000 C   0  0
   -0.0171   -5.7698    0.0000 C   0  0
    0.6994   -5.3609    0.0000 C   0  0
    0.7037   -4.5359    0.0000 C   0  0
    1.4198   -4.1253    0.0000 N   0  0
    1.4227   -3.2999    0.0000 C   0  0
    0.8523   -2.9680    0.0000 O   0  0
    2.1388   -2.8893    0.0000 N   0  0
    2.1419   -2.0639    0.0000 C   0  0
    2.8570   -1.6525    0.0000 C   0  0
    2.8583   -0.8275    0.0000 C   0  0
    2.1445   -0.4139    0.0000 C   0  0
    1.4293   -0.8252    0.0000 C   0  0
    1.4281   -1.6502    0.0000 C   0  0
    0.7144   -0.4125    0.0000 C   0  0
    0.7144    0.4125    0.0000 C   0  0
    0.0000    0.8250    0.0000 C   0  0
   -0.7144    0.4125    0.0000 C   0  0
   -1.4986    0.6674    0.0000 C   0  0
   -1.9836    0.0000    0.0000 N   0  0
   -1.4986   -0.6674    0.0000 N   0  0
   -0.7144   -0.4125    0.0000 C   0  0
    0.0000   -0.8250    0.0000 C   0  0
   -0.0088   -4.1198    0.0000 C   0  0
   -1.6685   -1.1905    0.0000 H   0  0
    2.6143   -3.1659    0.0000 H   0  0
    1.8951   -4.4019    0.0000 H   0  0
  1  2  1  0
  2  3  2  0
  3  4  1  0
  4  5  2  0
  5  6  1  0
  6  7  1  0
  6 26  2  0
  7  8  1  0
  7 29  1  0
  8  9  2  0
  8 10  1  0
 10 11  1  0
 10 28  1  0
 11 12  2  0
 12 13  1  0
 13 14  2  0
 14 15  1  0
 15 16  2  0
 15 17  1  0
 16 11  1  0
 17 18  2  0
 18 19  1  0
 19 20  2  0
 20 21  1  0
 21 22  2  0
 22 23  1  0
 23 24  1  0
 23 27  1  0
 24 20  1  0
 24 25  2  0
 25 17  1  0
 26  2  1  0
M  END
> <CMPD_CHEMBLID>
CHEMBL1983393

> <STANDARD_TYPE>
Ki

> <RELATION>
>

> <STANDARD_VALUE>
2511.89

> <STANDARD_UNITS>
nM

> <Molecular_Weight>
346.3577

$$$$

  SciTegic11272012012D

 38 41  0  0  0  0            999 V2000
    4.3969    1.8684    0.0000 C   0  0
    4.7864    1.3355    0.0000 C   0  0
    5.4426    1.4066    0.0000 C   0  0
    5.0530    1.9393    0.0000 C   0  0
    4.4538    0.5816    0.0000 C   0  0
    3.6475    0.4072    0.0000 C   0  0
    3.5745   -0.4075    0.0000 C   0  0
    2.8602   -0.8213    0.0000 N   0  0
    2.1445   -0.4100    0.0000 C   0  0
    2.1433    0.2500    0.0000 O   0  0
    1.4302   -0.8237    0.0000 C   0  0
    1.4313   -1.4837    0.0000 O   0  0
    0.7145   -0.4125    0.0000 C   0  0
    0.7145    0.4125    0.0000 C   0  0
    0.0000    0.8250    0.0000 C   0  0
   -0.7145    0.4125    0.0000 C   0  0
   -0.7145   -0.4125    0.0000 C   0  0
   -1.4290   -0.8250    0.0000 C   0  0
   -1.4290   -1.6500    0.0000 C   0  0
   -0.7145   -2.0625    0.0000 C   0  0
    0.0000   -1.6500    0.0000 C   0  0
    0.0000   -0.8250    0.0000 C   0  0
    4.3189   -0.7465    0.0000 N   0  0
    4.8688   -0.1315    0.0000 N   0  0
    4.4885   -1.5543    0.0000 C   0  0
    3.9214   -2.1494    0.0000 C   0  0
    4.1545   -2.9408    0.0000 C   0  0
    4.9564   -3.1346    0.0000 C   0  0
    5.1913   -3.9260    0.0000 O   0  0
    5.9939   -4.1188    0.0000 C   0  0
    6.2288   -4.9101    0.0000 C   0  0
    5.7746   -5.3889    0.0000 O   0  0
    7.0314   -5.1029    0.0000 N   0  0
    5.5252   -2.5371    0.0000 C   0  0
    5.2921   -1.7457    0.0000 C   0  0
    7.1879   -5.6301    0.0000 H   0  0
    7.4099   -4.7038    0.0000 H   0  0
    2.8612   -1.3713    0.0000 H   0  0
  1  2  1  0
  2  3  1  0
  2  4  1  0
  2  5  1  0
  5  6  1  0
  6  7  2  0
  7  8  1  0
  7 23  1  0
  8  9  1  0
  8 38  1  0
  9 10  2  0
  9 11  1  0
 11 12  2  0
 11 13  1  0
 13 14  2  0
 14 15  1  0
 15 16  2  0
 16 17  1  0
 17 18  2  0
 18 19  1  0
 19 20  2  0
 20 21  1  0
 21 22  2  0
 22 13  1  0
 22 17  1  0
 23 24  1  0
 23 25  1  0
 24  5  2  0
 25 26  2  0
 26 27  1  0
 27 28  2  0
 28 29  1  0
 28 34  1  0
 29 30  1  0
 30 31  1  0
 31 32  2  0
 31 33  1  0
 33 36  1  0
 33 37  1  0
 34 35  2  0
 35 25  1  0
M  END
> <CMPD_CHEMBLID>
CHEMBL1977634

> <STANDARD_TYPE>
Ki

> <RELATION>
>

> <STANDARD_VALUE>
2511.89

> <STANDARD_UNITS>
nM

> <Molecular_Weight>
470.51974

$$$$

  SciTegic11272012012D

 28 31  0  0  0  0            999 V2000
    1.4193   -3.9622    0.0000 F   0  0
    1.4216   -3.3022    0.0000 C   0  0
    0.7086   -2.8872    0.0000 C   0  0
    0.7114   -2.0622    0.0000 C   0  0
    1.4273   -1.6521    0.0000 C   0  0
    1.4285   -0.8267    0.0000 S   0  0
    0.7144   -0.4125    0.0000 C   0  0
    0.7144    0.4125    0.0000 N   0  0
    0.0000    0.8250    0.0000 N   0  0
    0.0000    1.6500    0.0000 C   0  0
   -0.7145    2.0625    0.0000 N   0  0
   -1.4289    1.6500    0.0000 C   0  0
   -2.0005    1.9800    0.0000 O   0  0
   -1.4289    0.8250    0.0000 C   0  0
   -0.7144    0.4125    0.0000 C   0  0
   -0.7144   -0.4125    0.0000 C   0  0
    0.0000   -0.8250    0.0000 C   0  0
   -2.1438    0.4123    0.0000 C   0  0
   -2.8589    0.8236    0.0000 C   0  0
   -2.8600    1.4836    0.0000 Cl  0  0
   -3.5727    0.4100    0.0000 C   0  0
   -3.5715   -0.4150    0.0000 C   0  0
   -2.8563   -0.8264    0.0000 C   0  0
   -2.1425   -0.4128    0.0000 C   0  0
   -1.5704   -0.7418    0.0000 Cl  0  0
    2.1403   -2.0672    0.0000 C   0  0
    2.7131   -1.7391    0.0000 F   0  0
    2.1375   -2.8922    0.0000 C   0  0
  1  2  1  0
  2  3  2  0
  3  4  1  0
  4  5  2  0
  5  6  1  0
  5 26  1  0
  6  7  1  0
  7  8  2  0
  8  9  1  0
  9 10  1  0
 10 11  2  0
 11 12  1  0
 12 13  2  0
 12 14  1  0
 14 15  2  0
 14 18  1  0
 15  9  1  0
 15 16  1  0
 16 17  2  0
 17  7  1  0
 18 19  2  0
 19 20  1  0
 19 21  1  0
 21 22  2  0
 22 23  1  0
 23 24  2  0
 24 18  1  0
 24 25  1  0
 26 27  1  0
 26 28  2  0
 28  2  1  0
M  END
> <CMPD_CHEMBLID>
CHEMBL119385

> <STANDARD_TYPE>
Ki

> <RELATION>
>

> <STANDARD_VALUE>
2511.89

> <STANDARD_UNITS>
nM

> <Molecular_Weight>
436.26207

$$$$

  SciTegic11272012012D

 36 41  0  0  0  0            999 V2000
   -4.6087   -0.6273    0.0000 C   0  0
   -4.0487   -0.3120    0.0000 N   0  0
   -4.0419    0.3307    0.0000 C   0  0
   -3.3567   -0.7210    0.0000 C   0  0
   -2.6564   -0.3267    0.0000 C   0  0
   -1.9441   -0.7444    0.0000 C   0  0
   -1.2265   -0.3321    0.0000 C   0  0
   -0.5088   -0.7444    0.0000 N   0  0
    0.1500   -0.2624    0.0000 C   0  0
    0.8141   -0.7498    0.0000 C   0  0
    1.5317   -0.3321    0.0000 C   0  0
    1.5317    0.4874    0.0000 C   0  0
    2.3190    0.7444    0.0000 C   0  0
    2.5185    1.3554    0.0000 O   0  0
    2.8010    0.0750    0.0000 N   0  0
    2.3190   -0.5838    0.0000 C   0  0
    2.5181   -1.1949    0.0000 O   0  0
    0.8141    0.8944    0.0000 C   0  0
    0.1500    0.4124    0.0000 C   0  0
   -0.5088    0.8944    0.0000 N   0  0
   -1.2158    0.4874    0.0000 C   0  0
   -1.9388    0.8998    0.0000 C   0  0
   -2.6511    0.4927    0.0000 O   0  0
   -0.2571    1.6710    0.0000 C   0  0
   -0.6641    2.3887    0.0000 C   0  0
   -0.2517    3.1063    0.0000 C   0  0
    0.5624    3.1063    0.0000 C   0  0
    0.9747    2.3887    0.0000 C   0  0
    0.5624    1.6710    0.0000 C   0  0
    0.5570   -1.5317    0.0000 C   0  0
    0.9747   -2.2494    0.0000 C   0  0
    0.5570   -2.9671    0.0000 C   0  0
   -0.2624   -2.9617    0.0000 C   0  0
   -0.6695   -2.2441    0.0000 C   0  0
   -0.2571   -1.5317    0.0000 C   0  0
    3.3366    0.0729    0.0000 H   0  0
  1  2  1  0
  2  3  1  0
  2  4  1  0
  4  5  1  0
  5  6  1  0
  6  7  1  0
  7  8  1  0
  8  9  1  0
  9 10  2  0
 10 11  1  0
 10 30  1  0
 11 12  2  0
 12 13  1  0
 12 18  1  0
 13 14  2  0
 13 15  1  0
 15 16  1  0
 15 36  1  0
 16 11  1  0
 16 17  2  0
 18 19  2  0
 19 20  1  0
 20 21  1  0
 20 24  1  0
 21 22  1  0
 22 23  1  0
 23  5  1  0
 24 25  2  0
 25 26  1  0
 26 27  2  0
 27 28  1  0
 28 29  2  0
 29 18  1  0
 29 24  1  0
 30 31  2  0
 31 32  1  0
 32 33  2  0
 33 34  1  0
 34 35  2  0
 35  8  1  0
 35 30  1  0
M  END
> <CMPD_CHEMBLID>
CHEMBL360847

> <STANDARD_TYPE>
Ki

> <RELATION>
>

> <STANDARD_VALUE>
2511.89

> <STANDARD_UNITS>
nM

> <Molecular_Weight>
468.54692

$$$$

  SciTegic11272012012D

 22 24  0  0  0  0            999 V2000
    2.1444   -0.4100    0.0000 O   0  0
    1.4302   -0.8237    0.0000 N   0  0
    0.7144   -0.4125    0.0000 C   0  0
    0.7144    0.4125    0.0000 C   0  0
    0.0000    0.8250    0.0000 C   0  0
   -0.7144    0.4125    0.0000 O   0  0
   -0.7144   -0.4125    0.0000 C   0  0
   -1.4290   -0.8250    0.0000 C   0  0
   -2.1447   -0.4138    0.0000 C   0  0
   -2.8590   -0.8275    0.0000 C   0  0
   -3.4312   -0.4987    0.0000 C   0  0
   -1.4290   -1.6500    0.0000 C   0  0
   -0.7144   -2.0625    0.0000 C   0  0
    0.0000   -1.6500    0.0000 C   0  0
    0.0000   -0.8250    0.0000 C   0  0
    0.0000    1.6504    0.0000 C   0  0
    0.7138    2.0641    0.0000 C   0  0
    0.7125    2.8891    0.0000 C   0  0
   -0.0026    3.3005    0.0000 C   0  0
   -0.7164    2.8868    0.0000 C   0  0
   -0.7151    2.0618    0.0000 C   0  0
    2.6214   -0.6840    0.0000 H   0  0
  1  2  1  0
  1 22  1  0
  2  3  2  0
  3  4  1  0
  4  5  2  0
  5  6  1  0
  5 16  1  0
  6  7  1  0
  7  8  2  0
  8  9  1  0
  8 12  1  0
  9 10  1  0
 10 11  2  0
 12 13  2  0
 13 14  1  0
 14 15  2  0
 15  3  1  0
 15  7  1  0
 16 17  2  0
 17 18  1  0
 18 19  2  0
 19 20  1  0
 20 21  2  0
 21 16  1  0
M  END
> <CMPD_CHEMBLID>
CHEMBL1977749

> <STANDARD_TYPE>
Ki

> <RELATION>
>

> <STANDARD_VALUE>
2511.89

> <STANDARD_UNITS>
nM

> <Molecular_Weight>
277.3172

$$$$

  SciTegic11272012012D

 47 53  0  0  0  0            999 V2000
    2.8562   -3.3203    0.0000 C   0  0
    2.1966   -3.3407    0.0000 N   0  0
    1.8846   -3.9223    0.0000 C   0  0
    1.7616   -2.6392    0.0000 C   0  0
    2.1529   -1.9129    0.0000 C   0  0
    1.7196   -1.2109    0.0000 C   0  0
    0.8977   -1.2355    0.0000 C   0  0
    0.5036   -1.9614    0.0000 C   0  0
    0.9369   -2.6634    0.0000 C   0  0
    0.5439   -3.3893    0.0000 N   0  0
    0.9756   -4.0929    0.0000 C   0  0
    1.6354   -4.0750    0.0000 O   0  0
    0.5826   -4.8188    0.0000 C   0  0
    1.0130   -5.5226    0.0000 C   0  0
    0.6187   -6.2473    0.0000 C   0  0
   -0.2060   -6.2682    0.0000 C   0  0
   -0.6365   -5.5644    0.0000 C   0  0
   -0.2422   -4.8397    0.0000 C   0  0
    0.4125   -0.5678    0.0000 C   0  0
   -0.4125   -0.5678    0.0000 N   0  0
   -0.6674    0.2169    0.0000 C   0  0
   -1.3342    0.7009    0.0000 S   0  0
   -1.0793    1.4855    0.0000 C   0  0
   -0.2543    1.4855    0.0000 C   0  0
    0.0000    0.7018    0.0000 N   0  0
    0.6674    0.2169    0.0000 C   0  0
    1.4524    0.4720    0.0000 C   0  0
    2.1029   -0.0311    0.0000 C   0  0
    2.8661    0.2821    0.0000 C   0  0
    2.9764    1.0997    0.0000 N   0  0
    2.3235    1.6041    0.0000 C   0  0
    2.4322    2.4224    0.0000 N   0  0
    3.1950    2.7378    0.0000 C   0  0
    3.3048    3.5555    0.0000 C   0  0
    4.0678    3.8692    0.0000 C   0  0
    4.7211    3.3653    0.0000 C   0  0
    4.6113    2.5476    0.0000 C   0  0
    3.8483    2.2339    0.0000 C   0  0
    5.2648    2.0435    0.0000 N   0  0
    6.0284    2.3560    0.0000 C   0  0
    6.6808    1.8511    0.0000 C   0  0
    6.5697    1.0336    0.0000 O   0  0
    5.8062    0.7210    0.0000 C   0  0
    5.1538    1.2260    0.0000 C   0  0
    1.5603    1.2908    0.0000 N   0  0
    1.9962    2.7575    0.0000 H   0  0
   -0.0059   -3.4042    0.0000 H   0  0
  1  2  1  0
  2  3  1  0
  2  4  1  0
  4  5  2  0
  5  6  1  0
  6  7  2  0
  7  8  1  0
  7 19  1  0
  8  9  2  0
  9  4  1  0
  9 10  1  0
 10 11  1  0
 10 47  1  0
 11 12  2  0
 11 13  1  0
 13 14  2  0
 14 15  1  0
 15 16  2  0
 16 17  1  0
 17 18  2  0
 18 13  1  0
 19 20  1  0
 20 21  2  0
 21 22  1  0
 22 23  1  0
 23 24  2  0
 24 25  1  0
 25 21  1  0
 25 26  1  0
 26 19  2  0
 26 27  1  0
 27 28  2  0
 28 29  1  0
 29 30  2  0
 30 31  1  0
 31 32  1  0
 31 45  2  0
 32 33  1  0
 32 46  1  0
 33 34  2  0
 34 35  1  0
 35 36  2  0
 36 37  1  0
 37 38  2  0
 37 39  1  0
 38 33  1  0
 39 40  1  0
 40 41  1  0
 41 42  1  0
 42 43  1  0
 43 44  1  0
 44 39  1  0
 45 27  1  0
M  END
> <CMPD_CHEMBLID>
CHEMBL1978267

> <STANDARD_TYPE>
Ki

> <RELATION>
>

> <STANDARD_VALUE>
2511.89

> <STANDARD_UNITS>
nM

> <Molecular_Weight>
616.73528

$$$$

  SciTegic11272012012D

 47 51  0  0  0  0            999 V2000
    1.2861   -0.7425    0.0000 C   0  0
    0.7144   -0.4125    0.0000 N   0  0
    0.7144    0.4125    0.0000 C   0  0
    0.0000    0.8250    0.0000 C   0  0
   -0.7144    0.4125    0.0000 C   0  0
   -0.7144   -0.4125    0.0000 C   0  0
   -1.4302   -0.8238    0.0000 N   0  0
   -2.1444   -0.4100    0.0000 C   0  0
   -2.8604   -0.8200    0.0000 C   0  0
   -3.5735   -0.4051    0.0000 C   0  0
   -3.5706    0.4199    0.0000 C   0  0
   -2.8547    0.8299    0.0000 C   0  0
   -2.1416    0.4150    0.0000 N   0  0
   -4.2832    0.8366    0.0000 C   0  0
   -4.8564    0.5096    0.0000 O   0  0
   -4.2792    1.6620    0.0000 N   0  0
   -4.9907    2.0795    0.0000 C   0  0
   -4.9850    2.9045    0.0000 C   0  0
   -4.2677    3.3120    0.0000 O   0  0
   -3.5561    2.8946    0.0000 C   0  0
   -3.5618    2.0696    0.0000 C   0  0
    0.0000   -0.8250    0.0000 C   0  0
    0.0000   -1.4850    0.0000 O   0  0
    0.0000    1.6504    0.0000 C   0  0
   -0.7151    2.0618    0.0000 C   0  0
   -0.7164    2.8868    0.0000 C   0  0
   -0.0026    3.3005    0.0000 C   0  0
    0.7125    2.8891    0.0000 C   0  0
    1.4259    3.3045    0.0000 N   0  0
    1.4233    4.1299    0.0000 C   0  0
    0.8507    4.4580    0.0000 O   0  0
    2.1367    4.5452    0.0000 C   0  0
    2.1354    5.3702    0.0000 C   0  0
    2.8492    5.7839    0.0000 C   0  0
    3.5644    5.3726    0.0000 C   0  0
    3.5657    4.5476    0.0000 C   0  0
    2.8519    4.1339    0.0000 C   0  0
    4.2786    5.7864    0.0000 C   0  0
    4.2779    6.4464    0.0000 C   0  0
    4.8506    5.4571    0.0000 C   0  0
    4.8498    6.1171    0.0000 C   0  0
    0.7138    2.0641    0.0000 C   0  0
    1.4285    1.6511    0.0000 C   0  0
    1.4287    0.8256    0.0000 O   0  0
    1.9049    0.5504    0.0000 H   0  0
    1.9031    3.0310    0.0000 H   0  0
   -1.4312   -1.3738    0.0000 H   0  0
  1  2  1  0
  2  3  1  0
  3  4  2  0
  4  5  1  0
  4 24  1  0
  5  6  2  0
  6  7  1  0
  6 22  1  0
  7  8  1  0
  7 47  1  0
  8  9  2  0
  9 10  1  0
 10 11  2  0
 11 12  1  0
 11 14  1  0
 12 13  2  0
 13  8  1  0
 14 15  2  0
 14 16  1  0
 16 17  1  0
 17 18  1  0
 18 19  1  0
 19 20  1  0
 20 21  1  0
 21 16  1  0
 22  2  1  0
 22 23  2  0
 24 25  2  0
 25 26  1  0
 26 27  2  0
 27 28  1  0
 28 29  1  0
 28 42  2  0
 29 30  1  0
 29 46  1  0
 30 31  2  0
 30 32  1  0
 32 33  2  0
 33 34  1  0
 34 35  2  0
 35 36  1  0
 35 38  1  0
 36 37  2  0
 37 32  1  0
 38 39  1  0
 38 40  1  0
 38 41  1  0
 42 24  1  0
 42 43  1  0
 43 44  1  0
 44 45  1  0
M  END
> <CMPD_CHEMBLID>
CHEMBL2001584

> <STANDARD_TYPE>
Ki

> <RELATION>
>

> <STANDARD_VALUE>
2511.89

> <STANDARD_UNITS>
nM

> <Molecular_Weight>
595.68808

$$$$

  SciTegic11272012012D

 18 20  0  0  0  0            999 V2000
    1.3218   -2.2894    0.0000 O   0  0
    0.9918   -1.7179    0.0000 C   0  0
    1.3273   -0.9642    0.0000 N   0  0
    0.7145   -0.4125    0.0000 C   0  0
    0.7145    0.4125    0.0000 C   0  0
    0.0000    0.8250    0.0000 C   0  0
   -0.7145    0.4125    0.0000 C   0  0
   -0.7145   -0.4125    0.0000 C   0  0
    0.0000   -0.8250    0.0000 C   0  0
    0.1713   -1.6316    0.0000 C   0  0
   -0.3790   -2.2450    0.0000 C   0  0
   -0.1229   -3.0298    0.0000 C   0  0
    0.6589   -3.2707    0.0000 C   0  0
    0.6616   -4.0957    0.0000 C   0  0
   -0.1222   -4.3533    0.0000 C   0  0
   -0.6094   -3.6874    0.0000 N   0  0
   -1.1594   -3.6860    0.0000 H   0  0
    1.8654   -0.8498    0.0000 H   0  0
  1  2  2  0
  2  3  1  0
  3  4  1  0
  3 18  1  0
  4  5  2  0
  5  6  1  0
  6  7  2  0
  7  8  1  0
  8  9  2  0
  9  4  1  0
  9 10  1  0
 10  2  1  0
 10 11  2  0
 11 12  1  0
 12 13  2  0
 13 14  1  0
 14 15  2  0
 15 16  1  0
 16 12  1  0
 16 17  1  0
M  END
> <CMPD_CHEMBLID>
CHEMBL1996176

> <STANDARD_TYPE>
Ki

> <RELATION>
>

> <STANDARD_VALUE>
2511.89

> <STANDARD_UNITS>
nM

> <Molecular_Weight>
210.2313

$$$$

  SciTegic11272012012D

 23 25  0  0  0  0            999 V2000
    1.4276   -1.4867    0.0000 C   0  0
    1.4285   -0.8267    0.0000 N   0  0
    2.0007   -0.4977    0.0000 C   0  0
    0.7145   -0.4125    0.0000 C   0  0
    0.7145    0.4125    0.0000 C   0  0
    0.0000    0.8250    0.0000 C   0  0
   -0.7145    0.4125    0.0000 C   0  0
   -1.4302    0.8238    0.0000 N   0  0
   -2.1445    0.4100    0.0000 C   0  0
   -2.8890    0.7490    0.0000 C   0  0
   -3.4389    0.1340    0.0000 C   0  0
   -3.0239   -0.5791    0.0000 N   0  0
   -2.2175   -0.4048    0.0000 N   0  0
   -4.2601    0.2174    0.0000 C   0  0
   -4.7158    0.8935    0.0000 C   0  0
   -5.5061    0.6567    0.0000 S   0  0
   -5.5250   -0.1681    0.0000 C   0  0
   -6.0677   -0.5437    0.0000 Br  0  0
   -4.7464   -0.4410    0.0000 C   0  0
   -0.7145   -0.4125    0.0000 C   0  0
    0.0000   -0.8250    0.0000 C   0  0
   -3.2458   -1.0823    0.0000 H   0  0
   -1.4312    1.3738    0.0000 H   0  0
  1  2  1  0
  2  3  1  0
  2  4  1  0
  4  5  2  0
  5  6  1  0
  6  7  2  0
  7  8  1  0
  7 20  1  0
  8  9  1  0
  8 23  1  0
  9 10  1  0
 10 11  2  0
 11 12  1  0
 11 14  1  0
 12 13  1  0
 12 22  1  0
 13  9  2  0
 14 15  2  0
 15 16  1  0
 16 17  1  0
 17 18  1  0
 17 19  2  0
 19 14  1  0
 20 21  2  0
 21  4  1  0
M  END
> <CMPD_CHEMBLID>
CHEMBL1984236

> <STANDARD_TYPE>
Ki

> <RELATION>
>

> <STANDARD_VALUE>
2511.89

> <STANDARD_UNITS>
nM

> <Molecular_Weight>
363.2754

$$$$

  SciTegic11272012012D

 21 22  0  0  0  0            999 V2000
    2.1404   -2.7264    0.0000 C   0  0
    2.1414   -2.0664    0.0000 C   0  0
    2.7135   -1.7374    0.0000 C   0  0
    1.4273   -1.6522    0.0000 C   0  0
    0.8552   -1.9812    0.0000 C   0  0
    1.4285   -0.8267    0.0000 N   0  0
    0.7145   -0.4125    0.0000 C   0  0
    0.7145    0.4125    0.0000 N   0  0
    0.0000    0.8250    0.0000 C   0  0
   -0.7145    0.4125    0.0000 C   0  0
   -1.2861    0.7425    0.0000 Cl  0  0
   -0.7145   -0.4125    0.0000 C   0  0
   -1.4285   -0.8267    0.0000 N   0  0
   -1.4273   -1.6522    0.0000 C   0  0
   -2.0931   -2.1274    0.0000 N   0  0
   -1.8354   -2.9112    0.0000 C   0  0
   -1.0104   -2.9083    0.0000 C   0  0
   -0.7582   -2.1228    0.0000 S   0  0
    0.0000   -0.8250    0.0000 N   0  0
   -1.9053   -0.5525    0.0000 H   0  0
    1.9054   -0.5525    0.0000 H   0  0
  1  2  1  0
  2  3  1  0
  2  4  1  0
  4  5  1  0
  4  6  1  0
  6  7  1  0
  6 21  1  0
  7  8  2  0
  8  9  1  0
  9 10  2  0
 10 11  1  0
 10 12  1  0
 12 13  1  0
 12 19  2  0
 13 14  1  0
 13 20  1  0
 14 15  2  0
 15 16  1  0
 16 17  2  0
 17 18  1  0
 18 14  1  0
 19  7  1  0
M  END
> <CMPD_CHEMBLID>
CHEMBL1993374

> <STANDARD_TYPE>
Ki

> <RELATION>
>

> <STANDARD_VALUE>
2511.89

> <STANDARD_UNITS>
nM

> <Molecular_Weight>
297.80694

$$$$

  SciTegic11272012012D

 29 32  0  0  0  0            999 V2000
    2.7168   -0.7388    0.0000 C   0  0
    2.1445   -0.4100    0.0000 C   0  0
    2.1433    0.2500    0.0000 C   0  0
    1.4302   -0.8237    0.0000 C   0  0
    0.7145   -0.4125    0.0000 C   0  0
    0.7145    0.4125    0.0000 N   0  0
    0.0000    0.8250    0.0000 C   0  0
   -0.0017    1.6505    0.0000 N   0  0
   -0.7172    2.0622    0.0000 C   0  0
   -0.7201    2.8872    0.0000 C   0  0
   -1.4360    3.2972    0.0000 C   0  0
   -2.1490    2.8823    0.0000 C   0  0
   -2.8653    3.2925    0.0000 N   0  0
   -2.8695    4.1175    0.0000 C   0  0
   -3.5861    4.5264    0.0000 C   0  0
   -4.2985    4.1103    0.0000 O   0  0
   -4.2943    3.2853    0.0000 C   0  0
   -3.5777    2.8764    0.0000 C   0  0
   -2.1462    2.0573    0.0000 C   0  0
   -2.7166    1.7253    0.0000 Cl  0  0
   -1.4303    1.6472    0.0000 C   0  0
   -0.7145    0.4125    0.0000 N   0  0
   -0.7145   -0.4125    0.0000 C   0  0
   -1.3273   -0.9642    0.0000 N   0  0
   -0.9918   -1.7178    0.0000 C   0  0
   -0.1713   -1.6316    0.0000 C   0  0
    0.0000   -0.8250    0.0000 C   0  0
   -1.8654   -0.8498    0.0000 H   0  0
    0.4741    1.9263    0.0000 H   0  0
  1  2  1  0
  2  3  1  0
  2  4  1  0
  4  5  1  0
  5  6  2  0
  6  7  1  0
  7  8  1  0
  7 22  2  0
  8  9  1  0
  8 29  1  0
  9 10  2  0
 10 11  1  0
 11 12  2  0
 12 13  1  0
 12 19  1  0
 13 14  1  0
 14 15  1  0
 15 16  1  0
 16 17  1  0
 17 18  1  0
 18 13  1  0
 19 20  1  0
 19 21  2  0
 21  9  1  0
 22 23  1  0
 23 24  1  0
 24 25  1  0
 24 28  1  0
 25 26  2  0
 26 27  1  0
 27  5  1  0
 27 23  2  0
M  END
> <CMPD_CHEMBLID>
CHEMBL1980763

> <STANDARD_TYPE>
Ki

> <RELATION>
=

> <STANDARD_VALUE>
2511.89

> <STANDARD_UNITS>
nM

> <Molecular_Weight>
385.89046

$$$$

  SciTegic11272012012D

 20 22  0  0  0  0            999 V2000
    2.2769    1.9826    0.0000 C   0  0
    2.8501    1.6554    0.0000 O   0  0
    2.8546    0.8300    0.0000 C   0  0
    3.5706    0.4200    0.0000 C   0  0
    3.5734   -0.4050    0.0000 C   0  0
    2.8604   -0.8200    0.0000 C   0  0
    2.1444   -0.4100    0.0000 C   0  0
    1.4302   -0.8237    0.0000 N   0  0
    0.7144   -0.4125    0.0000 C   0  0
    0.7144    0.4125    0.0000 N   0  0
    0.0000    0.8250    0.0000 C   0  0
   -0.7144    0.4125    0.0000 N   0  0
   -0.7144   -0.4125    0.0000 C   0  0
   -1.4289   -0.8250    0.0000 C   0  0
   -1.4289   -1.6500    0.0000 C   0  0
   -0.7144   -2.0625    0.0000 C   0  0
    0.0000   -1.6500    0.0000 C   0  0
    0.0000   -0.8250    0.0000 C   0  0
    2.1416    0.4150    0.0000 C   0  0
    1.4311   -1.3737    0.0000 H   0  0
  1  2  1  0
  2  3  1  0
  3  4  2  0
  4  5  1  0
  5  6  2  0
  6  7  1  0
  7  8  1  0
  7 19  2  0
  8  9  1  0
  8 20  1  0
  9 10  2  0
 10 11  1  0
 11 12  2  0
 12 13  1  0
 13 14  2  0
 14 15  1  0
 15 16  2  0
 16 17  1  0
 17 18  2  0
 18  9  1  0
 18 13  1  0
 19  3  1  0
M  END
> <CMPD_CHEMBLID>
CHEMBL117697

> <STANDARD_TYPE>
Ki

> <RELATION>
>

> <STANDARD_VALUE>
2511.89

> <STANDARD_UNITS>
nM

> <Molecular_Weight>
251.28322

$$$$

  SciTegic11272012012D

 19 21  0  0  0  0            999 V2000
    1.4053   -2.4306    0.0000 N   0  0
    0.9918   -1.7179    0.0000 C   0  0
    1.3273   -0.9642    0.0000 N   0  0
    0.7145   -0.4125    0.0000 C   0  0
    0.7145    0.4125    0.0000 C   0  0
    0.0000    0.8250    0.0000 C   0  0
   -0.7145    0.4125    0.0000 C   0  0
   -0.7145   -0.4125    0.0000 C   0  0
    0.0000   -0.8250    0.0000 C   0  0
    0.1713   -1.6316    0.0000 N   0  0
   -0.3810   -2.2450    0.0000 C   0  0
   -1.1958   -2.2134    0.0000 N   0  0
   -1.4714   -2.9910    0.0000 C   0  0
   -0.8170   -3.4934    0.0000 C   0  0
   -0.1370   -3.0263    0.0000 S   0  0
   -1.4294    0.8252    0.0000 C   0  0
   -2.0009    1.1552    0.0000 N   0  0
    1.9553   -2.4298    0.0000 H   0  0
    1.1312   -2.9075    0.0000 H   0  0
  1  2  1  0
  1 18  1  0
  1 19  1  0
  2  3  2  0
  3  4  1  0
  4  5  2  0
  5  6  1  0
  6  7  2  0
  7  8  1  0
  7 16  1  0
  8  9  2  0
  9  4  1  0
  9 10  1  0
 10  2  1  0
 10 11  1  0
 11 12  2  0
 12 13  1  0
 13 14  2  0
 14 15  1  0
 15 11  1  0
 16 17  3  0
M  END
> <CMPD_CHEMBLID>
CHEMBL1988805

> <STANDARD_TYPE>
Ki

> <RELATION>
>

> <STANDARD_VALUE>
2511.89

> <STANDARD_UNITS>
nM

> <Molecular_Weight>
241.27178

$$$$

  SciTegic11272012012D

 39 44  0  0  0  0            999 V2000
   -0.3304   -4.7001    0.0000 C   0  0
   -0.6751   -4.1373    0.0000 C   0  0
   -1.4998   -4.1587    0.0000 C   0  0
   -1.9307   -3.4551    0.0000 C   0  0
   -1.5368   -2.7303    0.0000 C   0  0
   -0.7122   -2.7089    0.0000 C   0  0
   -0.2812   -3.4123    0.0000 C   0  0
    0.5439   -3.3892    0.0000 N   0  0
    0.9369   -2.6634    0.0000 C   0  0
    1.7616   -2.6391    0.0000 N   0  0
    2.1529   -1.9129    0.0000 C   0  0
    1.7195   -1.2109    0.0000 C   0  0
    0.8976   -1.2355    0.0000 C   0  0
    0.5036   -1.9614    0.0000 N   0  0
    0.4125   -0.5678    0.0000 C   0  0
    0.6674    0.2169    0.0000 C   0  0
    0.0000    0.7018    0.0000 N   0  0
   -0.6674    0.2169    0.0000 C   0  0
   -1.4913    0.2172    0.0000 S   0  0
   -1.7462   -0.5674    0.0000 C   0  0
   -1.0788   -1.0523    0.0000 C   0  0
   -0.4125   -0.5678    0.0000 N   0  0
    1.4524    0.4719    0.0000 C   0  0
    2.1028   -0.0311    0.0000 C   0  0
    2.8660    0.2821    0.0000 C   0  0
    2.9764    1.0997    0.0000 C   0  0
    2.3235    1.6040    0.0000 C   0  0
    2.4322    2.4223    0.0000 N   0  0
    1.7782    2.9259    0.0000 C   0  0
    1.1681    2.6743    0.0000 O   0  0
    1.8869    3.7442    0.0000 C   0  0
    1.2340    4.2485    0.0000 C   0  0
    1.3443    5.0662    0.0000 C   0  0
    2.1075    5.3794    0.0000 C   0  0
    2.7604    4.8751    0.0000 C   0  0
    2.6501    4.0575    0.0000 C   0  0
    1.5603    1.2908    0.0000 C   0  0
    2.9406    2.6320    0.0000 H   0  0
    0.8320   -3.8578    0.0000 H   0  0
  1  2  1  0
  2  3  2  0
  3  4  1  0
  4  5  2  0
  5  6  1  0
  6  7  2  0
  7  2  1  0
  7  8  1  0
  8  9  1  0
  8 39  1  0
  9 10  2  0
 10 11  1  0
 11 12  2  0
 12 13  1  0
 13 14  2  0
 13 15  1  0
 14  9  1  0
 15 16  2  0
 16 17  1  0
 16 23  1  0
 17 18  2  0
 18 19  1  0
 19 20  1  0
 20 21  2  0
 21 22  1  0
 22 15  1  0
 22 18  1  0
 23 24  2  0
 24 25  1  0
 25 26  2  0
 26 27  1  0
 27 28  1  0
 27 37  2  0
 28 29  1  0
 28 38  1  0
 29 30  2  0
 29 31  1  0
 31 32  2  0
 32 33  1  0
 33 34  2  0
 34 35  1  0
 35 36  2  0
 36 31  1  0
 37 23  1  0
M  END
> <CMPD_CHEMBLID>
CHEMBL1988076

> <STANDARD_TYPE>
Ki

> <RELATION>
>

> <STANDARD_VALUE>
2511.89

> <STANDARD_UNITS>
nM

> <Molecular_Weight>
502.58958

$$$$

  SciTegic11272012012D

 24 26  0  0  0  0            999 V2000
    3.8338    1.4031    0.0000 O   0  0
    3.8379    0.5777    0.0000 C   0  0
    4.4112    0.2507    0.0000 O   0  0
    3.1282    0.1626    0.0000 C   0  0
    2.9175   -0.6350    0.0000 C   0  0
    2.1445   -0.4100    0.0000 N   0  0
    1.4302   -0.8237    0.0000 C   0  0
    0.7145   -0.4125    0.0000 C   0  0
    0.7145    0.4125    0.0000 C   0  0
    0.0000    0.8250    0.0000 C   0  0
   -0.7145    0.4125    0.0000 C   0  0
   -1.4302    0.8237    0.0000 O   0  0
   -2.1445    0.4100    0.0000 C   0  0
   -2.8602    0.8213    0.0000 C   0  0
   -3.5747    0.4088    0.0000 C   0  0
   -4.2892    0.8213    0.0000 C   0  0
   -4.2892    1.6463    0.0000 C   0  0
   -3.5747    2.0588    0.0000 C   0  0
   -2.8602    1.6463    0.0000 C   0  0
   -0.7145   -0.4125    0.0000 C   0  0
    0.0000   -0.8250    0.0000 C   0  0
    0.0000   -1.4850    0.0000 Cl  0  0
    2.3306    0.3733    0.0000 C   0  0
    4.3086    1.6807    0.0000 H   0  0
  1  2  1  0
  1 24  1  0
  2  3  2  0
  2  4  1  0
  4  5  1  0
  5  6  1  0
  6  7  1  0
  6 23  1  0
  7  8  1  0
  8  9  2  0
  9 10  1  0
 10 11  2  0
 11 12  1  0
 11 20  1  0
 12 13  1  0
 13 14  1  0
 14 15  2  0
 15 16  1  0
 16 17  2  0
 17 18  1  0
 18 19  2  0
 19 14  1  0
 20 21  2  0
 21  8  1  0
 21 22  1  0
 23  4  1  0
M  END
> <CMPD_CHEMBLID>
CHEMBL1987998

> <STANDARD_TYPE>
Ki

> <RELATION>
>

> <STANDARD_VALUE>
2511.89

> <STANDARD_UNITS>
nM

> <Molecular_Weight>
331.79342

$$$$

  SciTegic11272012012D

 42 46  0  0  0  0            999 V2000
    2.0013   -0.4930    0.0000 C   0  0
    1.4302   -0.8237    0.0000 O   0  0
    0.7144   -0.4125    0.0000 C   0  0
    0.7144    0.4125    0.0000 C   0  0
    0.0000    0.8250    0.0000 C   0  0
    0.0000    1.6500    0.0000 C   0  0
   -0.7145    2.0625    0.0000 N   0  0
   -1.4290    1.6500    0.0000 C   0  0
   -1.4290    0.8250    0.0000 N   0  0
   -0.7144    0.4125    0.0000 C   0  0
   -0.7144   -0.4125    0.0000 C   0  0
    0.0000   -0.8250    0.0000 C   0  0
   -0.0017   -1.6504    0.0000 O   0  0
   -0.7171   -2.0622    0.0000 C   0  0
   -0.7188   -2.8876    0.0000 C   0  0
   -1.4343   -3.2993    0.0000 C   0  0
   -1.4360   -4.1248    0.0000 N   0  0
   -2.1504   -4.5373    0.0000 C   0  0
   -2.1504   -5.3623    0.0000 C   0  0
   -1.4360   -5.7748    0.0000 C   0  0
   -0.7215   -5.3623    0.0000 C   0  0
   -0.7215   -4.5373    0.0000 C   0  0
    0.7148    2.0627    0.0000 N   0  0
    1.4300    1.6514    0.0000 C   0  0
    2.1438    2.0650    0.0000 C   0  0
    2.1425    2.8900    0.0000 N   0  0
    1.4274    3.3014    0.0000 C   0  0
    0.7136    2.8877    0.0000 C   0  0
    2.8559    3.3054    0.0000 C   0  0
    3.4285    2.9773    0.0000 O   0  0
    2.8533    4.1308    0.0000 N   0  0
    3.5667    4.5461    0.0000 C   0  0
    3.5654    5.3712    0.0000 C   0  0
    4.2792    5.7848    0.0000 C   0  0
    4.9944    5.3735    0.0000 C   0  0
    5.7094    5.7859    0.0000 O   0  0
    6.4243    5.3733    0.0000 C   0  0
    6.9961    5.7031    0.0000 C   0  0
    6.4243    4.7133    0.0000 C   0  0
    4.9957    4.5485    0.0000 C   0  0
    4.2819    4.1348    0.0000 C   0  0
    2.3761    4.4042    0.0000 H   0  0
  1  2  1  0
  2  3  1  0
  3  4  2  0
  4  5  1  0
  5  6  2  0
  6  7  1  0
  6 23  1  0
  7  8  2  0
  8  9  1  0
  9 10  2  0
 10  5  1  0
 10 11  1  0
 11 12  2  0
 12  3  1  0
 12 13  1  0
 13 14  1  0
 14 15  1  0
 15 16  1  0
 16 17  1  0
 17 18  1  0
 18 19  1  0
 19 20  1  0
 20 21  1  0
 21 22  1  0
 22 17  1  0
 23 24  1  0
 24 25  1  0
 25 26  1  0
 26 27  1  0
 26 29  1  0
 27 28  1  0
 28 23  1  0
 29 30  2  0
 29 31  1  0
 31 32  1  0
 31 42  1  0
 32 33  2  0
 33 34  1  0
 34 35  2  0
 35 36  1  0
 35 40  1  0
 36 37  1  0
 37 38  1  0
 37 39  1  0
 40 41  2  0
 41 32  1  0
M  END
> <CMPD_CHEMBLID>
CHEMBL124660

> <STANDARD_TYPE>
Ki

> <RELATION>
>

> <STANDARD_VALUE>
2511.89

> <STANDARD_UNITS>
nM

> <Molecular_Weight>
562.70298

$$$$

  SciTegic11272012012D

 27 30  0  0  0  0            999 V2000
   -2.0178   -4.5921    0.0000 O   0  0
   -2.1728   -3.9506    0.0000 C   0  0
   -2.9647   -3.7175    0.0000 N   0  0
   -3.5628   -4.2863    0.0000 C   0  0
   -4.3547   -4.0532    0.0000 C   0  0
   -4.9528   -4.6220    0.0000 C   0  0
   -5.7558   -4.4659    0.0000 C   0  0
   -6.1472   -5.1921    0.0000 C   0  0
   -5.5775   -5.7888    0.0000 C   0  0
   -4.8339   -5.4313    0.0000 S   0  0
   -1.5746   -3.3817    0.0000 N   0  0
   -0.7828   -3.6136    0.0000 C   0  0
   -0.1861   -3.0438    0.0000 C   0  0
   -0.3810   -2.2450    0.0000 C   0  0
   -1.1730   -2.0103    0.0000 C   0  0
   -1.7697   -2.5801    0.0000 C   0  0
    0.1713   -1.6316    0.0000 C   0  0
    0.9918   -1.7178    0.0000 C   0  0
    1.3273   -0.9642    0.0000 N   0  0
    0.7145   -0.4125    0.0000 C   0  0
    0.7145    0.4125    0.0000 N   0  0
    0.0000    0.8250    0.0000 C   0  0
   -0.7145    0.4125    0.0000 C   0  0
   -0.7145   -0.4125    0.0000 C   0  0
    0.0000   -0.8250    0.0000 C   0  0
    1.8654   -0.8498    0.0000 H   0  0
   -3.0937   -3.1828    0.0000 H   0  0
  1  2  2  0
  2  3  1  0
  2 11  1  0
  3  4  1  0
  3 27  1  0
  4  5  1  0
  5  6  1  0
  6  7  2  0
  7  8  1  0
  8  9  2  0
  9 10  1  0
 10  6  1  0
 11 12  1  0
 12 13  1  0
 13 14  1  0
 14 15  2  0
 14 17  1  0
 15 16  1  0
 16 11  1  0
 17 18  2  0
 18 19  1  0
 19 20  1  0
 19 26  1  0
 20 21  2  0
 21 22  1  0
 22 23  2  0
 23 24  1  0
 24 25  2  0
 25 17  1  0
 25 20  1  0
M  END
> <CMPD_CHEMBLID>
CHEMBL1987535

> <STANDARD_TYPE>
Ki

> <RELATION>
>

> <STANDARD_VALUE>
2511.89

> <STANDARD_UNITS>
nM

> <Molecular_Weight>
352.4533

$$$$

  SciTegic11272012012D

 33 35  0  0  0  0            999 V2000
    1.2861   -0.7425    0.0000 C   0  0
    0.7144   -0.4125    0.0000 C   0  0
    0.7144    0.4125    0.0000 C   0  0
    0.0000    0.8250    0.0000 C   0  0
    0.0000    1.4850    0.0000 O   0  0
   -0.7144    0.4125    0.0000 N   0  0
   -0.7144   -0.4125    0.0000 N   0  0
    0.0000   -0.8250    0.0000 C   0  0
    0.0000   -1.6504    0.0000 C   0  0
   -0.7138   -2.0641    0.0000 C   0  0
   -0.7125   -2.8891    0.0000 C   0  0
    0.0026   -3.3005    0.0000 C   0  0
    0.0023   -4.1259    0.0000 N   0  0
   -0.7126   -4.5388    0.0000 C   0  0
   -1.2841   -4.2087    0.0000 O   0  0
   -0.7130   -5.3643    0.0000 N   0  0
   -1.4277   -5.7771    0.0000 C   0  0
   -2.1415   -5.3633    0.0000 C   0  0
   -2.8568   -5.7744    0.0000 C   0  0
   -2.8582   -6.5995    0.0000 C   0  0
   -2.1446   -7.0133    0.0000 C   0  0
   -1.4293   -6.6021    0.0000 C   0  0
   -0.8584   -6.9332    0.0000 F   0  0
   -3.5708   -5.3604    0.0000 C   0  0
   -3.5700   -4.7004    0.0000 F   0  0
   -4.1429   -5.6895    0.0000 F   0  0
   -4.1419   -5.0296    0.0000 F   0  0
    0.7164   -2.8868    0.0000 C   0  0
    1.2885   -3.2159    0.0000 Cl  0  0
    0.7151   -2.0618    0.0000 C   0  0
   -0.2367   -5.6393    0.0000 H   0  0
    0.4785   -4.4010    0.0000 H   0  0
   -1.1908    0.6875    0.0000 H   0  0
  1  2  1  0
  2  3  2  0
  3  4  1  0
  4  5  2  0
  4  6  1  0
  6  7  1  0
  6 33  1  0
  7  8  2  0
  8  2  1  0
  8  9  1  0
  9 10  2  0
 10 11  1  0
 11 12  2  0
 12 13  1  0
 12 28  1  0
 13 14  1  0
 13 32  1  0
 14 15  2  0
 14 16  1  0
 16 17  1  0
 16 31  1  0
 17 18  2  0
 18 19  1  0
 19 20  2  0
 19 24  1  0
 20 21  1  0
 21 22  2  0
 22 17  1  0
 22 23  1  0
 24 25  1  0
 24 26  1  0
 24 27  1  0
 28 29  1  0
 28 30  2  0
 30  9  1  0
M  END
> <CMPD_CHEMBLID>
CHEMBL1997892

> <STANDARD_TYPE>
Ki

> <RELATION>
>

> <STANDARD_VALUE>
2511.89

> <STANDARD_UNITS>
nM

> <Molecular_Weight>
440.77873

$$$$

  SciTegic11272012012D

 25 28  0  0  0  0            999 V2000
    1.4302   -0.8238    0.0000 O   0  0
    0.7145   -0.4125    0.0000 C   0  0
    0.7145    0.4125    0.0000 C   0  0
    0.0000    0.8250    0.0000 C   0  0
   -0.7145    0.4125    0.0000 C   0  0
   -0.7145   -0.4125    0.0000 C   0  0
   -1.4290   -0.8250    0.0000 N   0  0
   -1.4290   -1.6500    0.0000 C   0  0
   -0.7145   -2.0625    0.0000 C   0  0
    0.0000   -1.6500    0.0000 C   0  0
    0.0000   -0.8250    0.0000 C   0  0
   -2.1438   -2.0628    0.0000 C   0  0
   -2.2185   -2.8773    0.0000 C   0  0
   -1.7248   -3.3154    0.0000 O   0  0
   -3.0252   -3.0500    0.0000 N   0  0
   -3.4385   -2.3365    0.0000 C   0  0
   -4.2457   -2.1661    0.0000 C   0  0
   -4.5017   -1.3818    0.0000 C   0  0
   -3.9506   -0.7679    0.0000 C   0  0
   -3.1433   -0.9383    0.0000 C   0  0
   -2.8873   -1.7226    0.0000 C   0  0
   -4.2068    0.0168    0.0000 C   0  0
   -4.4116    0.6442    0.0000 N   0  0
   -3.2483   -3.5528    0.0000 H   0  0
    1.9062   -0.5481    0.0000 H   0  0
  1  2  1  0
  1 25  1  0
  2  3  1  0
  3  4  1  0
  4  5  1  0
  5  6  1  0
  6  7  2  0
  7  8  1  0
  8  9  2  0
  8 12  1  0
  9 10  1  0
 10 11  2  0
 11  2  1  0
 11  6  1  0
 12 13  1  0
 13 14  2  0
 13 15  1  0
 15 16  1  0
 15 24  1  0
 16 17  2  0
 17 18  1  0
 18 19  2  0
 19 20  1  0
 19 22  1  0
 20 21  2  0
 21 12  1  0
 21 16  1  0
 22 23  3  0
M  END
> <CMPD_CHEMBLID>
CHEMBL1985681

> <STANDARD_TYPE>
Ki

> <RELATION>
>

> <STANDARD_VALUE>
2511.89

> <STANDARD_UNITS>
nM

> <Molecular_Weight>
305.3306

$$$$

  SciTegic11272012012D

 27 29  0  0  0  0            999 V2000
   -0.0249   -6.4315    0.0000 C   0  0
   -0.0212   -5.7715    0.0000 C   0  0
    0.6956   -5.3623    0.0000 C   0  0
    0.7002   -4.5369    0.0000 N   0  0
    1.4171   -4.1276    0.0000 C   0  0
    1.9869   -4.4606    0.0000 O   0  0
    1.4216   -3.3022    0.0000 C   0  0
    2.1375   -2.8922    0.0000 C   0  0
    2.1403   -2.0672    0.0000 C   0  0
    1.4273   -1.6521    0.0000 C   0  0
    1.4285   -0.8267    0.0000 N   0  0
    0.7144   -0.4125    0.0000 C   0  0
    0.7144    0.4125    0.0000 N   0  0
    0.0000    0.8250    0.0000 C   0  0
    0.0017    1.6504    0.0000 C   0  0
    0.5738    1.9797    0.0000 C   0  0
   -0.7144    0.4125    0.0000 C   0  0
   -1.4986    0.6674    0.0000 C   0  0
   -1.9836    0.0000    0.0000 C   0  0
   -1.4986   -0.6674    0.0000 N   0  0
   -0.7144   -0.4125    0.0000 C   0  0
    0.0000   -0.8250    0.0000 N   0  0
    0.7114   -2.0622    0.0000 C   0  0
    0.7086   -2.8872    0.0000 C   0  0
   -1.6685   -1.1905    0.0000 H   0  0
    1.9053   -0.5525    0.0000 H   0  0
    0.2253   -4.2594    0.0000 H   0  0
  1  2  1  0
  2  3  1  0
  3  4  1  0
  4  5  1  0
  4 27  1  0
  5  6  2  0
  5  7  1  0
  7  8  2  0
  8  9  1  0
  9 10  2  0
 10 11  1  0
 10 23  1  0
 11 12  1  0
 11 26  1  0
 12 13  2  0
 13 14  1  0
 14 15  1  0
 14 17  2  0
 15 16  1  0
 17 18  1  0
 18 19  2  0
 19 20  1  0
 20 21  1  0
 20 25  1  0
 21 17  1  0
 21 22  2  0
 22 12  1  0
 23 24  2  0
 24  7  1  0
M  END
> <CMPD_CHEMBLID>
CHEMBL1997007

> <STANDARD_TYPE>
Ki

> <RELATION>
>

> <STANDARD_VALUE>
2511.89

> <STANDARD_UNITS>
nM

> <Molecular_Weight>
323.39224

$$$$

  SciTegic11272012012D

 46 51  0  0  0  0            999 V2000
   -0.5613   -5.4216    0.0000 C   0  0
   -0.2454   -4.8420    0.0000 O   0  0
   -0.6751   -4.1373    0.0000 C   0  0
   -1.4998   -4.1587    0.0000 C   0  0
   -1.9307   -3.4551    0.0000 C   0  0
   -1.5368   -2.7303    0.0000 C   0  0
   -1.9665   -2.0254    0.0000 C   0  0
   -1.5715   -1.3007    0.0000 N   0  0
   -1.8578   -0.8311    0.0000 C   0  0
   -0.9117   -1.2847    0.0000 C   0  0
   -0.7122   -2.7089    0.0000 C   0  0
   -0.2812   -3.4123    0.0000 C   0  0
    0.5439   -3.3892    0.0000 N   0  0
    0.9369   -2.6634    0.0000 C   0  0
    1.7616   -2.6391    0.0000 N   0  0
    2.1529   -1.9129    0.0000 C   0  0
    1.7195   -1.2109    0.0000 C   0  0
    0.8976   -1.2355    0.0000 C   0  0
    0.5036   -1.9614    0.0000 N   0  0
    0.4125   -0.5678    0.0000 C   0  0
    0.6674    0.2169    0.0000 C   0  0
    0.0000    0.7018    0.0000 N   0  0
   -0.6674    0.2169    0.0000 C   0  0
   -1.4913    0.2172    0.0000 S   0  0
   -1.7462   -0.5674    0.0000 C   0  0
   -1.0788   -1.0523    0.0000 C   0  0
   -0.4125   -0.5678    0.0000 N   0  0
    1.4524    0.4719    0.0000 C   0  0
    2.1028   -0.0311    0.0000 C   0  0
    2.8660    0.2821    0.0000 C   0  0
    2.9764    1.0997    0.0000 C   0  0
    2.3235    1.6040    0.0000 C   0  0
    2.4322    2.4223    0.0000 N   0  0
    1.7782    2.9259    0.0000 C   0  0
    1.1681    2.6743    0.0000 O   0  0
    1.8869    3.7442    0.0000 C   0  0
    1.2340    4.2485    0.0000 C   0  0
    0.6235    3.9980    0.0000 F   0  0
    1.3443    5.0662    0.0000 C   0  0
    2.1075    5.3794    0.0000 C   0  0
    2.7604    4.8751    0.0000 C   0  0
    2.6501    4.0575    0.0000 C   0  0
    3.1724    3.6541    0.0000 F   0  0
    1.5603    1.2908    0.0000 C   0  0
    2.9406    2.6320    0.0000 H   0  0
    0.8320   -3.8578    0.0000 H   0  0
  1  2  1  0
  2  3  1  0
  3  4  2  0
  4  5  1  0
  5  6  2  0
  6  7  1  0
  6 11  1  0
  7  8  1  0
  8  9  1  0
  8 10  1  0
 11 12  2  0
 12  3  1  0
 12 13  1  0
 13 14  1  0
 13 46  1  0
 14 15  2  0
 15 16  1  0
 16 17  2  0
 17 18  1  0
 18 19  2  0
 18 20  1  0
 19 14  1  0
 20 21  2  0
 21 22  1  0
 21 28  1  0
 22 23  2  0
 23 24  1  0
 24 25  1  0
 25 26  2  0
 26 27  1  0
 27 20  1  0
 27 23  1  0
 28 29  2  0
 29 30  1  0
 30 31  2  0
 31 32  1  0
 32 33  1  0
 32 44  2  0
 33 34  1  0
 33 45  1  0
 34 35  2  0
 34 36  1  0
 36 37  2  0
 37 38  1  0
 37 39  1  0
 39 40  2  0
 40 41  1  0
 41 42  2  0
 42 36  1  0
 42 43  1  0
 44 28  1  0
M  END
> <CMPD_CHEMBLID>
CHEMBL1997051

> <STANDARD_TYPE>
Ki

> <RELATION>
>

> <STANDARD_VALUE>
2511.89

> <STANDARD_UNITS>
nM

> <Molecular_Weight>
611.66429

$$$$

  SciTegic11272012012D

 25 27  0  0  0  0            999 V2000
    2.5780   -2.4160    0.0000 C   0  0
    2.3105   -1.8126    0.0000 C   0  0
    2.7242   -1.0988    0.0000 C   0  0
    2.1731   -0.4848    0.0000 C   0  0
    1.4293   -0.8252    0.0000 C   0  0
    1.5039   -1.6398    0.0000 S   0  0
    0.7144   -0.4125    0.0000 C   0  0
    0.7144    0.4125    0.0000 C   0  0
    1.4293    0.8252    0.0000 C   0  0
    2.0009    1.1552    0.0000 N   0  0
    0.0000    0.8250    0.0000 C   0  0
    0.0000    1.4850    0.0000 O   0  0
   -0.7144    0.4125    0.0000 N   0  0
   -0.7144   -0.4125    0.0000 C   0  0
    0.0000   -0.8250    0.0000 C   0  0
   -1.4293   -0.8252    0.0000 C   0  0
   -1.4280   -1.6502    0.0000 C   0  0
   -2.1419   -2.0639    0.0000 C   0  0
   -2.1408   -2.7239    0.0000 Br  0  0
   -2.8570   -1.6525    0.0000 C   0  0
   -2.8583   -0.8275    0.0000 C   0  0
   -2.1444   -0.4139    0.0000 C   0  0
   -2.1475    0.4116    0.0000 O   0  0
   -2.6247    0.6851    0.0000 H   0  0
   -1.1908    0.6875    0.0000 H   0  0
  1  2  1  0
  2  3  2  0
  3  4  1  0
  4  5  2  0
  5  6  1  0
  5  7  1  0
  6  2  1  0
  7  8  2  0
  8  9  1  0
  8 11  1  0
  9 10  3  0
 11 12  2  0
 11 13  1  0
 13 14  1  0
 13 25  1  0
 14 15  2  0
 14 16  1  0
 15  7  1  0
 16 17  2  0
 17 18  1  0
 18 19  1  0
 18 20  2  0
 20 21  1  0
 21 22  2  0
 22 16  1  0
 22 23  1  0
 23 24  1  0
M  END
> <CMPD_CHEMBLID>
CHEMBL1997193

> <STANDARD_TYPE>
Ki

> <RELATION>
>

> <STANDARD_VALUE>
2511.89

> <STANDARD_UNITS>
nM

> <Molecular_Weight>
387.25044

$$$$

  SciTegic11272012012D

 37 40  0  0  0  0            999 V2000
    4.3969    1.8684    0.0000 C   0  0
    4.7864    1.3355    0.0000 C   0  0
    5.4425    1.4066    0.0000 C   0  0
    5.0530    1.9393    0.0000 C   0  0
    4.4538    0.5816    0.0000 C   0  0
    3.6474    0.4072    0.0000 C   0  0
    3.5745   -0.4075    0.0000 C   0  0
    2.8602   -0.8213    0.0000 N   0  0
    2.1445   -0.4100    0.0000 C   0  0
    2.1433    0.2500    0.0000 O   0  0
    1.4302   -0.8237    0.0000 C   0  0
    1.4313   -1.4837    0.0000 O   0  0
    0.7145   -0.4125    0.0000 C   0  0
    0.7145    0.4125    0.0000 C   0  0
    0.0000    0.8250    0.0000 C   0  0
   -0.7145    0.4125    0.0000 C   0  0
   -0.7145   -0.4125    0.0000 C   0  0
   -1.4290   -0.8250    0.0000 C   0  0
   -1.4290   -1.6500    0.0000 C   0  0
   -0.7145   -2.0625    0.0000 C   0  0
    0.0000   -1.6500    0.0000 C   0  0
    0.0000   -0.8250    0.0000 C   0  0
    4.3189   -0.7465    0.0000 N   0  0
    4.8688   -0.1315    0.0000 N   0  0
    4.4885   -1.5543    0.0000 C   0  0
    3.9213   -2.1494    0.0000 C   0  0
    4.1544   -2.9408    0.0000 C   0  0
    4.9564   -3.1346    0.0000 C   0  0
    5.5252   -2.5370    0.0000 C   0  0
    6.3279   -2.7293    0.0000 O   0  0
    6.8962   -2.1306    0.0000 C   0  0
    7.6989   -2.3229    0.0000 C   0  0
    7.8865   -2.9557    0.0000 O   0  0
    8.2672   -1.7241    0.0000 O   0  0
    5.2921   -1.7457    0.0000 C   0  0
    8.8021   -1.8522    0.0000 H   0  0
    2.8612   -1.3713    0.0000 H   0  0
  1  2  1  0
  2  3  1  0
  2  4  1  0
  2  5  1  0
  5  6  1  0
  6  7  2  0
  7  8  1  0
  7 23  1  0
  8  9  1  0
  8 37  1  0
  9 10  2  0
  9 11  1  0
 11 12  2  0
 11 13  1  0
 13 14  2  0
 14 15  1  0
 15 16  2  0
 16 17  1  0
 17 18  2  0
 18 19  1  0
 19 20  2  0
 20 21  1  0
 21 22  2  0
 22 13  1  0
 22 17  1  0
 23 24  1  0
 23 25  1  0
 24  5  2  0
 25 26  2  0
 26 27  1  0
 27 28  2  0
 28 29  1  0
 29 30  1  0
 29 35  2  0
 30 31  1  0
 31 32  1  0
 32 33  2  0
 32 34  1  0
 34 36  1  0
 35 25  1  0
M  END
> <CMPD_CHEMBLID>
CHEMBL1964902

> <STANDARD_TYPE>
Ki

> <RELATION>
>

> <STANDARD_VALUE>
2511.89

> <STANDARD_UNITS>
nM

> <Molecular_Weight>
471.5045

$$$$

  SciTegic11272012012D

 29 33  0  0  0  0            999 V2000
    7.7490   -2.7340    0.0000 O   0  0
    6.9948   -2.3985    0.0000 C   0  0
    6.3268   -2.8835    0.0000 C   0  0
    5.5739   -2.5486    0.0000 N   0  0
    4.8587   -2.9599    0.0000 C   0  0
    4.2583   -2.4043    0.0000 C   0  0
    4.5834   -1.6537    0.0000 C   0  0
    5.4038   -1.7413    0.0000 N   0  0
    3.4504   -2.5732    0.0000 C   0  0
    3.1928   -3.3570    0.0000 C   0  0
    2.3853   -3.5259    0.0000 N   0  0
    1.8353   -2.9109    0.0000 C   0  0
    1.0107   -2.9083    0.0000 N   0  0
    0.7584   -2.1229    0.0000 N   0  0
    1.4273   -1.6522    0.0000 N   0  0
    1.4285   -0.8267    0.0000 C   0  0
    0.7145   -0.4125    0.0000 C   0  0
    0.7145    0.4125    0.0000 C   0  0
    0.0000    0.8250    0.0000 C   0  0
   -0.7145    0.4125    0.0000 C   0  0
   -1.4290    0.8250    0.0000 N   0  0
   -2.1434    0.4125    0.0000 C   0  0
   -2.1434   -0.4125    0.0000 C   0  0
   -1.4290   -0.8250    0.0000 C   0  0
   -0.7145   -0.4125    0.0000 C   0  0
    0.0000   -0.8250    0.0000 C   0  0
    2.0928   -2.1272    0.0000 C   0  0
    2.9004   -1.9583    0.0000 N   0  0
    8.1940   -2.4109    0.0000 H   0  0
  1  2  1  0
  1 29  1  0
  2  3  1  0
  3  4  1  0
  4  5  1  0
  5  6  2  0
  6  7  1  0
  6  9  1  0
  7  8  2  0
  8  4  1  0
  9 10  2  0
 10 11  1  0
 11 12  2  0
 12 13  1  0
 13 14  2  0
 14 15  1  0
 15 16  1  0
 15 27  1  0
 16 17  1  0
 17 18  2  0
 18 19  1  0
 19 20  2  0
 20 21  1  0
 21 22  2  0
 22 23  1  0
 23 24  2  0
 24 25  1  0
 25 20  1  0
 25 26  2  0
 26 17  1  0
 27 12  1  0
 27 28  2  0
 28  9  1  0
M  END
> <CMPD_CHEMBLID>
CHEMBL2001019

> <STANDARD_TYPE>
Ki

> <RELATION>
>

> <STANDARD_VALUE>
2511.89

> <STANDARD_UNITS>
nM

> <Molecular_Weight>
372.38334

$$$$

  SciTegic11272012012D

 38 42  0  0  0  0            999 V2000
    0.5907   -5.2303    0.0000 C   0  0
    0.3877   -4.6023    0.0000 O   0  0
   -0.4193   -4.4289    0.0000 C   0  0
   -0.9714   -5.0419    0.0000 C   0  0
   -1.7784   -4.8702    0.0000 C   0  0
   -2.0332   -4.0855    0.0000 C   0  0
   -1.4810   -3.4726    0.0000 C   0  0
   -0.6741   -3.6442    0.0000 C   0  0
   -0.1229   -3.0297    0.0000 C   0  0
    0.5229   -3.1659    0.0000 O   0  0
   -0.3789   -2.2450    0.0000 N   0  0
    0.1713   -1.6316    0.0000 C   0  0
    0.9918   -1.7178    0.0000 N   0  0
    1.3273   -0.9641    0.0000 N   0  0
    0.7144   -0.4125    0.0000 C   0  0
    0.7144    0.4125    0.0000 C   0  0
    0.0000    0.8250    0.0000 C   0  0
   -0.7144    0.4125    0.0000 C   0  0
   -1.4302    0.8237    0.0000 C   0  0
   -2.1444    0.4100    0.0000 C   0  0
   -2.8604    0.8200    0.0000 C   0  0
   -3.5734    0.4050    0.0000 C   0  0
   -4.1462    0.7330    0.0000 F   0  0
   -3.5706   -0.4200    0.0000 C   0  0
   -2.8547   -0.8300    0.0000 C   0  0
   -2.8524   -1.4900    0.0000 F   0  0
   -2.1416   -0.4150    0.0000 C   0  0
   -0.7144   -0.4125    0.0000 C   0  0
    0.0000   -0.8250    0.0000 C   0  0
   -2.3308   -5.4835    0.0000 N   0  0
   -2.0772   -6.2687    0.0000 C   0  0
   -2.6304   -6.8807    0.0000 C   0  0
   -3.4370   -6.7078    0.0000 N   0  0
   -3.8795   -7.1975    0.0000 C   0  0
   -3.6906   -5.9228    0.0000 C   0  0
   -3.1375   -5.3106    0.0000 C   0  0
    1.8653   -0.8497    0.0000 H   0  0
   -0.9171   -2.1315    0.0000 H   0  0
  1  2  1  0
  2  3  1  0
  3  4  2  0
  4  5  1  0
  5  6  2  0
  5 30  1  0
  6  7  1  0
  7  8  2  0
  8  3  1  0
  8  9  1  0
  9 10  2  0
  9 11  1  0
 11 12  1  0
 11 38  1  0
 12 13  2  0
 13 14  1  0
 14 15  1  0
 14 37  1  0
 15 16  2  0
 16 17  1  0
 17 18  2  0
 18 19  1  0
 18 28  1  0
 19 20  1  0
 20 21  2  0
 21 22  1  0
 22 23  1  0
 22 24  2  0
 24 25  1  0
 25 26  1  0
 25 27  2  0
 27 20  1  0
 28 29  2  0
 29 12  1  0
 29 15  1  0
 30 31  1  0
 31 32  1  0
 32 33  1  0
 33 34  1  0
 33 35  1  0
 35 36  1  0
 36 30  1  0
M  END
> <CMPD_CHEMBLID>
CHEMBL1973961

> <STANDARD_TYPE>
Ki

> <RELATION>
>

> <STANDARD_VALUE>
2511.89

> <STANDARD_UNITS>
nM

> <Molecular_Weight>
491.53239

$$$$

  SciTegic11272012012D

 27 29  0  0  0  0            999 V2000
    2.0013   -0.4930    0.0000 C   0  0
    1.4302   -0.8237    0.0000 O   0  0
    0.7145   -0.4125    0.0000 C   0  0
    0.7145    0.4125    0.0000 C   0  0
    0.0000    0.8250    0.0000 C   0  0
   -0.7145    0.4125    0.0000 C   0  0
   -0.7145   -0.4125    0.0000 C   0  0
    0.0000   -0.8250    0.0000 C   0  0
   -0.0017   -1.6504    0.0000 C   0  0
   -0.7171   -2.0622    0.0000 N   0  0
   -0.7189   -2.8876    0.0000 C   0  0
   -0.0056   -3.3031    0.0000 N   0  0
   -1.4343   -3.2993    0.0000 N   0  0
   -1.4360   -4.1248    0.0000 C   0  0
   -2.1504   -4.5373    0.0000 N   0  0
   -2.1504   -5.3623    0.0000 C   0  0
   -1.4360   -5.7748    0.0000 C   0  0
   -0.7215   -5.3623    0.0000 C   0  0
   -0.7215   -4.5373    0.0000 N   0  0
   -0.0067   -5.7751    0.0000 C   0  0
    0.0704   -6.5894    0.0000 C   0  0
    0.8776   -6.7597    0.0000 C   0  0
    1.2890   -6.0446    0.0000 C   0  0
    0.7360   -5.4324    0.0000 S   0  0
   -1.9102   -3.0235    0.0000 H   0  0
   -0.0073   -3.8531    0.0000 H   0  0
   -1.1930   -1.7863    0.0000 H   0  0
  1  2  1  0
  2  3  1  0
  3  4  2  0
  4  5  1  0
  5  6  2  0
  6  7  1  0
  7  8  2  0
  8  3  1  0
  8  9  1  0
  9 10  1  0
 10 11  1  0
 10 27  1  0
 11 12  2  0
 11 13  1  0
 12 26  1  0
 13 14  1  0
 13 25  1  0
 14 15  2  0
 15 16  1  0
 16 17  2  0
 17 18  1  0
 18 19  2  0
 18 20  1  0
 19 14  1  0
 20 21  2  0
 21 22  1  0
 22 23  2  0
 23 24  1  0
 24 20  1  0
M  END
> <CMPD_CHEMBLID>
CHEMBL1997197

> <STANDARD_TYPE>
Ki

> <RELATION>
>

> <STANDARD_VALUE>
2511.89

> <STANDARD_UNITS>
nM

> <Molecular_Weight>
339.41478

$$$$

  SciTegic11272012012D

 19 21  0  0  0  0            999 V2000
    1.2861   -0.7425    0.0000 Br  0  0
    0.7144   -0.4125    0.0000 C   0  0
    0.7144    0.4125    0.0000 C   0  0
    0.0000    0.8250    0.0000 C   0  0
   -0.7144    0.4125    0.0000 C   0  0
   -1.4290    0.8250    0.0000 C   0  0
   -2.1434    0.4125    0.0000 N   0  0
   -2.1434   -0.4125    0.0000 C   0  0
   -2.8574   -0.8267    0.0000 N   0  0
   -2.8563   -1.6521    0.0000 C   0  0
   -3.5693   -2.0672    0.0000 C   0  0
   -3.5664   -2.8922    0.0000 C   0  0
   -2.8505   -3.3022    0.0000 N   0  0
   -2.1375   -2.8872    0.0000 C   0  0
   -2.1403   -2.0622    0.0000 N   0  0
   -1.4290   -0.8250    0.0000 C   0  0
   -0.7144   -0.4125    0.0000 C   0  0
    0.0000   -0.8250    0.0000 C   0  0
   -3.3342   -0.5525    0.0000 H   0  0
  1  2  1  0
  2  3  2  0
  3  4  1  0
  4  5  2  0
  5  6  1  0
  6  7  2  0
  7  8  1  0
  8  9  1  0
  8 16  2  0
  9 10  1  0
  9 19  1  0
 10 11  2  0
 11 12  1  0
 12 13  2  0
 13 14  1  0
 14 15  2  0
 15 10  1  0
 16 17  1  0
 17  5  1  0
 17 18  2  0
 18  2  1  0
M  END
> <CMPD_CHEMBLID>
CHEMBL1984686

> <STANDARD_TYPE>
Ki

> <RELATION>
>

> <STANDARD_VALUE>
2511.89

> <STANDARD_UNITS>
nM

> <Molecular_Weight>
301.14136

$$$$

  SciTegic11272012012D

 28 31  0  0  0  0            999 V2000
    2.6853   -1.4085    0.0000 O   0  0
    2.1337   -0.7943    0.0000 N   0  0
    1.3273   -0.9642    0.0000 C   0  0
    0.7145   -0.4125    0.0000 C   0  0
    0.7145    0.4125    0.0000 C   0  0
    0.0000    0.8250    0.0000 C   0  0
   -0.7145    0.4125    0.0000 C   0  0
   -0.7145   -0.4125    0.0000 C   0  0
    0.0000   -0.8250    0.0000 C   0  0
    0.1713   -1.6316    0.0000 C   0  0
   -0.3136   -2.2984    0.0000 C   0  0
    0.0220   -3.0520    0.0000 C   0  0
    0.8425   -3.1383    0.0000 C   0  0
    1.1798   -3.8917    0.0000 N   0  0
    2.0009   -3.9768    0.0000 S   0  0
    2.3879   -3.4422    0.0000 O   0  0
    1.7315   -3.3743    0.0000 O   0  0
    2.3382   -4.7302    0.0000 C   0  0
    1.8546   -5.3986    0.0000 C   0  0
    2.1917   -6.1517    0.0000 C   0  0
    3.0124   -6.2362    0.0000 C   0  0
    3.4960   -5.5677    0.0000 C   0  0
    4.1525   -5.6354    0.0000 Br  0  0
    3.1589   -4.8148    0.0000 C   0  0
    1.3274   -2.4708    0.0000 C   0  0
    0.9918   -1.7178    0.0000 C   0  0
    0.8573   -4.3372    0.0000 H   0  0
    3.2235   -1.2951    0.0000 H   0  0
  1  2  1  0
  1 28  1  0
  2  3  2  0
  3  4  1  0
  4  5  2  0
  5  6  1  0
  6  7  2  0
  7  8  1  0
  8  9  2  0
  9  4  1  0
  9 10  1  0
 10 11  2  0
 11 12  1  0
 12 13  2  0
 13 14  1  0
 13 25  1  0
 14 15  1  0
 14 27  1  0
 15 16  2  0
 15 17  2  0
 15 18  1  0
 18 19  2  0
 19 20  1  0
 20 21  2  0
 21 22  1  0
 22 23  1  0
 22 24  2  0
 24 18  1  0
 25 26  2  0
 26  3  1  0
 26 10  1  0
M  END
> <CMPD_CHEMBLID>
CHEMBL1973793

> <STANDARD_TYPE>
Ki

> <RELATION>
>

> <STANDARD_VALUE>
2511.89

> <STANDARD_UNITS>
nM

> <Molecular_Weight>
429.28712

$$$$

  SciTegic11272012012D

 23 24  0  0  0  0            999 V2000
    1.4291   -1.4852    0.0000 C   0  0
    1.4294   -0.8252    0.0000 C   0  0
    0.8577   -1.1551    0.0000 C   0  0
    0.7145   -0.4125    0.0000 C   0  0
    0.7145    0.4125    0.0000 C   0  0
    0.0000    0.8250    0.0000 C   0  0
    0.0000    1.4850    0.0000 Br  0  0
   -0.7145    0.4125    0.0000 C   0  0
   -1.4302    0.8237    0.0000 O   0  0
   -0.7145   -0.4125    0.0000 C   0  0
   -1.2861   -0.7425    0.0000 I   0  0
    0.0000   -0.8250    0.0000 C   0  0
    2.1445   -0.4129    0.0000 C   0  0
    2.8587   -0.8259    0.0000 C   0  0
    3.5734   -0.4139    0.0000 C   0  0
    4.1448   -0.7442    0.0000 Br  0  0
    3.5739    0.4111    0.0000 C   0  0
    4.2882    0.8249    0.0000 O   0  0
    2.8598    0.8241    0.0000 C   0  0
    2.8601    1.4841    0.0000 I   0  0
    2.1450    0.4121    0.0000 C   0  0
    4.2878    1.3749    0.0000 H   0  0
   -1.9062    0.5481    0.0000 H   0  0
  1  2  1  0
  2  3  1  0
  2  4  1  0
  2 13  1  0
  4  5  2  0
  5  6  1  0
  6  7  1  0
  6  8  2  0
  8  9  1  0
  8 10  1  0
  9 23  1  0
 10 11  1  0
 10 12  2  0
 12  4  1  0
 13 14  2  0
 14 15  1  0
 15 16  1  0
 15 17  2  0
 17 18  1  0
 17 19  1  0
 18 22  1  0
 19 20  1  0
 19 21  2  0
 21 13  1  0
M  END
> <CMPD_CHEMBLID>
CHEMBL1964382

> <STANDARD_TYPE>
Ki

> <RELATION>
>

> <STANDARD_VALUE>
2511.89

> <STANDARD_UNITS>
nM

> <Molecular_Weight>
637.87152

$$$$

  SciTegic11272012012D

 28 30  0  0  0  0            999 V2000
    3.8338    1.4031    0.0000 O   0  0
    3.8379    0.5777    0.0000 C   0  0
    4.4112    0.2507    0.0000 O   0  0
    3.1282    0.1626    0.0000 C   0  0
    2.9175   -0.6350    0.0000 C   0  0
    2.1445   -0.4100    0.0000 N   0  0
    1.4302   -0.8237    0.0000 C   0  0
    0.7145   -0.4125    0.0000 C   0  0
    0.7145    0.4125    0.0000 C   0  0
    0.0000    0.8250    0.0000 C   0  0
   -0.7145    0.4125    0.0000 C   0  0
   -1.4302    0.8237    0.0000 O   0  0
   -2.1445    0.4100    0.0000 C   0  0
   -2.8602    0.8213    0.0000 C   0  0
   -3.5747    0.4088    0.0000 C   0  0
   -4.2892    0.8213    0.0000 C   0  0
   -4.2892    1.6463    0.0000 C   0  0
   -3.5747    2.0588    0.0000 C   0  0
   -2.8602    1.6463    0.0000 C   0  0
   -3.5747    2.8842    0.0000 C   0  0
   -4.1461    3.2146    0.0000 F   0  0
   -3.0031    3.2140    0.0000 F   0  0
   -3.5745    3.5442    0.0000 F   0  0
   -0.7145   -0.4125    0.0000 C   0  0
    0.0000   -0.8250    0.0000 C   0  0
    0.0000   -1.4850    0.0000 Cl  0  0
    2.3306    0.3733    0.0000 C   0  0
    4.3086    1.6807    0.0000 H   0  0
  1  2  1  0
  1 28  1  0
  2  3  2  0
  2  4  1  0
  4  5  1  0
  5  6  1  0
  6  7  1  0
  6 27  1  0
  7  8  1  0
  8  9  2  0
  9 10  1  0
 10 11  2  0
 11 12  1  0
 11 24  1  0
 12 13  1  0
 13 14  1  0
 14 15  2  0
 15 16  1  0
 16 17  2  0
 17 18  1  0
 18 19  2  0
 18 20  1  0
 19 14  1  0
 20 21  1  0
 20 22  1  0
 20 23  1  0
 24 25  2  0
 25  8  1  0
 25 26  1  0
 27  4  1  0
M  END
> <CMPD_CHEMBLID>
CHEMBL1986265

> <STANDARD_TYPE>
Ki

> <RELATION>
>

> <STANDARD_VALUE>
2511.89

> <STANDARD_UNITS>
nM

> <Molecular_Weight>
399.79139

$$$$

  SciTegic11272012012D

 23 26  0  0  0  0            999 V2000
    1.4053   -2.4306    0.0000 N   0  0
    0.9918   -1.7179    0.0000 C   0  0
    1.3273   -0.9642    0.0000 N   0  0
    0.7145   -0.4125    0.0000 C   0  0
    0.7145    0.4125    0.0000 C   0  0
    0.0000    0.8250    0.0000 C   0  0
   -0.7145    0.4125    0.0000 C   0  0
   -0.7145   -0.4125    0.0000 C   0  0
    0.0000   -0.8250    0.0000 C   0  0
    0.1713   -1.6316    0.0000 N   0  0
   -0.3810   -2.2450    0.0000 C   0  0
   -1.1958   -2.2134    0.0000 N   0  0
   -1.4712   -2.9906    0.0000 C   0  0
   -2.2334   -3.3061    0.0000 C   0  0
   -2.3413   -4.1240    0.0000 C   0  0
   -1.6869   -4.6265    0.0000 C   0  0
   -0.9247   -4.3109    0.0000 C   0  0
   -0.8168   -3.4930    0.0000 C   0  0
   -0.1370   -3.0263    0.0000 S   0  0
   -1.4294    0.8252    0.0000 C   0  0
   -2.0009    1.1552    0.0000 N   0  0
    1.9553   -2.4298    0.0000 H   0  0
    1.1312   -2.9075    0.0000 H   0  0
  1  2  1  0
  1 22  1  0
  1 23  1  0
  2  3  2  0
  3  4  1  0
  4  5  2  0
  5  6  1  0
  6  7  2  0
  7  8  1  0
  7 20  1  0
  8  9  2  0
  9  4  1  0
  9 10  1  0
 10  2  1  0
 10 11  1  0
 11 12  2  0
 12 13  1  0
 13 14  1  0
 14 15  1  0
 15 16  1  0
 16 17  1  0
 17 18  1  0
 18 13  2  0
 18 19  1  0
 19 11  1  0
 20 21  3  0
M  END
> <CMPD_CHEMBLID>
CHEMBL1996345

> <STANDARD_TYPE>
Ki

> <RELATION>
>

> <STANDARD_VALUE>
2511.89

> <STANDARD_UNITS>
nM

> <Molecular_Weight>
295.36222

$$$$

  SciTegic11272012012D

 24 26  0  0  0  0            999 V2000
    1.4302   -0.8237    0.0000 O   0  0
    0.7144   -0.4125    0.0000 C   0  0
    0.7144    0.4125    0.0000 C   0  0
    0.0000    0.8250    0.0000 C   0  0
   -0.7144    0.4125    0.0000 C   0  0
   -0.7144   -0.4125    0.0000 C   0  0
   -1.4290   -0.8250    0.0000 C   0  0
   -2.1447   -0.4138    0.0000 N   0  0
   -2.8590   -0.8275    0.0000 C   0  0
   -2.8578   -1.4875    0.0000 O   0  0
   -3.5747   -0.4162    0.0000 N   0  0
   -4.2889   -0.8300    0.0000 C   0  0
   -5.0048   -0.4200    0.0000 C   0  0
   -5.7179   -0.8350    0.0000 N   0  0
   -5.7150   -1.6600    0.0000 C   0  0
   -4.9991   -2.0700    0.0000 C   0  0
   -4.2861   -1.6551    0.0000 N   0  0
   -1.4290   -1.6500    0.0000 C   0  0
   -0.7144   -2.0625    0.0000 C   0  0
    0.0000   -1.6500    0.0000 C   0  0
    0.0000   -0.8250    0.0000 C   0  0
   -3.5756    0.1338    0.0000 H   0  0
   -2.1456    0.1362    0.0000 H   0  0
    1.9061   -0.5481    0.0000 H   0  0
  1  2  1  0
  1 24  1  0
  2  3  2  0
  3  4  1  0
  4  5  2  0
  5  6  1  0
  6  7  2  0
  7  8  1  0
  7 18  1  0
  8  9  1  0
  8 23  1  0
  9 10  2  0
  9 11  1  0
 11 12  1  0
 11 22  1  0
 12 13  2  0
 13 14  1  0
 14 15  2  0
 15 16  1  0
 16 17  2  0
 17 12  1  0
 18 19  2  0
 19 20  1  0
 20 21  2  0
 21  2  1  0
 21  6  1  0
M  END
> <CMPD_CHEMBLID>
CHEMBL1992371

> <STANDARD_TYPE>
Ki

> <RELATION>
>

> <STANDARD_VALUE>
2511.89

> <STANDARD_UNITS>
nM

> <Molecular_Weight>
280.28138

$$$$

  SciTegic11272012012D

 26 28  0  0  0  0            999 V2000
    2.1444   -0.4100    0.0000 N   0  0
    1.4302   -0.8237    0.0000 C   0  0
    0.7144   -0.4125    0.0000 C   0  0
    0.7144    0.4125    0.0000 C   0  0
    0.0000    0.8250    0.0000 C   0  0
   -0.0017    1.6504    0.0000 N   0  0
   -0.7171    2.0622    0.0000 C   0  0
   -0.7201    2.8872    0.0000 N   0  0
   -1.4359    3.2972    0.0000 C   0  0
   -2.1490    2.8822    0.0000 N   0  0
   -2.1462    2.0572    0.0000 C   0  0
   -1.4303    1.6472    0.0000 N   0  0
   -2.8596    1.6420    0.0000 C   0  0
   -3.5762    2.0509    0.0000 C   0  0
   -4.2885    1.6348    0.0000 C   0  0
   -4.2843    0.8098    0.0000 C   0  0
   -3.5678    0.4009    0.0000 C   0  0
   -2.8554    0.8170    0.0000 C   0  0
   -0.7144    0.4125    0.0000 C   0  0
   -0.7144   -0.4125    0.0000 C   0  0
    0.0000   -0.8250    0.0000 C   0  0
   -0.0017   -1.6504    0.0000 O   0  0
   -0.4784   -1.9248    0.0000 H   0  0
    0.4741    1.9263    0.0000 H   0  0
    2.6214   -0.6840    0.0000 H   0  0
    2.1435    0.1400    0.0000 H   0  0
  1  2  1  0
  1 25  1  0
  1 26  1  0
  2  3  1  0
  3  4  2  0
  4  5  1  0
  5  6  1  0
  5 19  2  0
  6  7  1  0
  6 24  1  0
  7  8  2  0
  8  9  1  0
  9 10  2  0
 10 11  1  0
 11 12  2  0
 11 13  1  0
 12  7  1  0
 13 14  2  0
 14 15  1  0
 15 16  2  0
 16 17  1  0
 17 18  2  0
 18 13  1  0
 19 20  1  0
 20 21  2  0
 21  3  1  0
 21 22  1  0
 22 23  1  0
M  END
> <CMPD_CHEMBLID>
CHEMBL1980246

> <STANDARD_TYPE>
Ki

> <RELATION>
>

> <STANDARD_VALUE>
2511.89

> <STANDARD_UNITS>
nM

> <Molecular_Weight>
293.3232

$$$$

  SciTegic11272012012D

 34 38  0  0  0  0            999 V2000
   -2.6787   -3.9482    0.0000 F   0  0
   -2.0332   -4.0856    0.0000 C   0  0
   -1.7784   -4.8702    0.0000 C   0  0
   -0.9714   -5.0419    0.0000 C   0  0
   -0.4193   -4.4289    0.0000 C   0  0
    0.2263   -4.5662    0.0000 F   0  0
   -0.6741   -3.6442    0.0000 C   0  0
   -1.4810   -3.4726    0.0000 C   0  0
   -0.1229   -3.0297    0.0000 C   0  0
    0.5229   -3.1659    0.0000 O   0  0
   -0.3789   -2.2450    0.0000 N   0  0
    0.1713   -1.6316    0.0000 C   0  0
    0.9918   -1.7178    0.0000 N   0  0
    1.3273   -0.9641    0.0000 N   0  0
    0.7144   -0.4125    0.0000 C   0  0
    0.7144    0.4125    0.0000 C   0  0
    0.0000    0.8250    0.0000 C   0  0
   -0.7144    0.4125    0.0000 C   0  0
   -0.7144   -0.4125    0.0000 C   0  0
    0.0000   -0.8250    0.0000 C   0  0
   -1.4293    0.8252    0.0000 C   0  0
   -1.5064    1.6395    0.0000 C   0  0
   -2.3137    1.8098    0.0000 N   0  0
   -2.6516    2.5614    0.0000 C   0  0
   -3.4728    2.6452    0.0000 C   0  0
   -3.8122    3.3971    0.0000 C   0  0
   -4.6331    3.4792    0.0000 C   0  0
   -5.1147    2.8093    0.0000 C   0  0
   -4.7753    2.0573    0.0000 C   0  0
   -3.9544    1.9753    0.0000 C   0  0
   -2.7250    1.0947    0.0000 N   0  0
   -2.1721    0.4825    0.0000 N   0  0
    1.8653   -0.8497    0.0000 H   0  0
   -0.9171   -2.1315    0.0000 H   0  0
  1  2  1  0
  2  3  2  0
  3  4  1  0
  4  5  2  0
  5  6  1  0
  5  7  1  0
  7  8  2  0
  7  9  1  0
  8  2  1  0
  9 10  2  0
  9 11  1  0
 11 12  1  0
 11 34  1  0
 12 13  2  0
 13 14  1  0
 14 15  1  0
 14 33  1  0
 15 16  2  0
 16 17  1  0
 17 18  2  0
 18 19  1  0
 18 21  1  0
 19 20  2  0
 20 12  1  0
 20 15  1  0
 21 22  2  0
 22 23  1  0
 23 24  1  0
 23 31  1  0
 24 25  1  0
 25 26  2  0
 26 27  1  0
 27 28  2  0
 28 29  1  0
 29 30  2  0
 30 25  1  0
 31 32  2  0
 32 21  1  0
M  END
> <CMPD_CHEMBLID>
CHEMBL1995811

> <STANDARD_TYPE>
Ki

> <RELATION>
>

> <STANDARD_VALUE>
2511.89

> <STANDARD_UNITS>
nM

> <Molecular_Weight>
430.40955

$$$$

  SciTegic11272012012D

 48 54  0  0  0  0            999 V2000
    2.8562   -3.3203    0.0000 C   0  0
    2.1966   -3.3407    0.0000 N   0  0
    1.8846   -3.9222    0.0000 C   0  0
    1.7616   -2.6391    0.0000 C   0  0
    2.1529   -1.9129    0.0000 C   0  0
    1.7196   -1.2109    0.0000 C   0  0
    0.8976   -1.2355    0.0000 C   0  0
    0.5036   -1.9614    0.0000 C   0  0
    0.9369   -2.6634    0.0000 C   0  0
    0.5439   -3.3893    0.0000 N   0  0
    0.9756   -4.0929    0.0000 C   0  0
    1.6353   -4.0750    0.0000 O   0  0
    0.5826   -4.8188    0.0000 C   0  0
    1.0142   -5.5223    0.0000 C   0  0
    0.6225   -6.2484    0.0000 C   0  0
    1.0553   -6.9507    0.0000 C   0  0
    1.8800   -6.9269    0.0000 C   0  0
    2.2718   -6.2010    0.0000 C   0  0
    1.8389   -5.4986    0.0000 C   0  0
    0.4125   -0.5678    0.0000 C   0  0
   -0.4125   -0.5678    0.0000 N   0  0
   -0.6674    0.2169    0.0000 C   0  0
   -1.3342    0.7009    0.0000 S   0  0
   -1.0793    1.4855    0.0000 C   0  0
   -0.2543    1.4855    0.0000 C   0  0
    0.0000    0.7018    0.0000 N   0  0
    0.6674    0.2169    0.0000 C   0  0
    1.4524    0.4719    0.0000 C   0  0
    2.1028   -0.0311    0.0000 C   0  0
    2.8661    0.2821    0.0000 C   0  0
    2.9764    1.0997    0.0000 N   0  0
    2.3235    1.6041    0.0000 C   0  0
    2.4322    2.4223    0.0000 N   0  0
    3.1950    2.7378    0.0000 C   0  0
    3.3048    3.5554    0.0000 C   0  0
    4.0678    3.8692    0.0000 C   0  0
    4.7210    3.3653    0.0000 C   0  0
    4.6113    2.5476    0.0000 C   0  0
    3.8482    2.2339    0.0000 C   0  0
    5.2648    2.0435    0.0000 N   0  0
    6.0283    2.3560    0.0000 C   0  0
    6.6808    1.8511    0.0000 C   0  0
    6.5697    1.0336    0.0000 O   0  0
    5.8062    0.7210    0.0000 C   0  0
    5.1538    1.2260    0.0000 C   0  0
    1.5603    1.2908    0.0000 N   0  0
    1.9961    2.7575    0.0000 H   0  0
   -0.0059   -3.4042    0.0000 H   0  0
  1  2  1  0
  2  3  1  0
  2  4  1  0
  4  5  2  0
  5  6  1  0
  6  7  2  0
  7  8  1  0
  7 20  1  0
  8  9  2  0
  9  4  1  0
  9 10  1  0
 10 11  1  0
 10 48  1  0
 11 12  2  0
 11 13  1  0
 13 14  1  0
 14 15  2  0
 15 16  1  0
 16 17  2  0
 17 18  1  0
 18 19  2  0
 19 14  1  0
 20 21  1  0
 21 22  2  0
 22 23  1  0
 23 24  1  0
 24 25  2  0
 25 26  1  0
 26 22  1  0
 26 27  1  0
 27 20  2  0
 27 28  1  0
 28 29  2  0
 29 30  1  0
 30 31  2  0
 31 32  1  0
 32 33  1  0
 32 46  2  0
 33 34  1  0
 33 47  1  0
 34 35  2  0
 35 36  1  0
 36 37  2  0
 37 38  1  0
 38 39  2  0
 38 40  1  0
 39 34  1  0
 40 41  1  0
 41 42  1  0
 42 43  1  0
 43 44  1  0
 44 45  1  0
 45 40  1  0
 46 28  1  0
M  END
> <CMPD_CHEMBLID>
CHEMBL1969483

> <STANDARD_TYPE>
Ki

> <RELATION>
>

> <STANDARD_VALUE>
2511.89

> <STANDARD_UNITS>
nM

> <Molecular_Weight>
630.76186

$$$$

  SciTegic11272012012D

 33 37  0  0  0  0            999 V2000
    1.4302   -0.8237    0.0000 N   0  0
    0.7145   -0.4125    0.0000 C   0  0
    0.7145    0.4125    0.0000 N   0  0
    0.0000    0.8250    0.0000 C   0  0
   -0.7145    0.4125    0.0000 N   0  0
   -0.7145   -0.4125    0.0000 C   0  0
    0.0000   -0.8250    0.0000 C   0  0
   -0.1713   -1.6316    0.0000 C   0  0
   -0.9918   -1.7178    0.0000 C   0  0
   -1.3273   -0.9642    0.0000 N   0  0
   -2.1347   -0.7924    0.0000 C   0  0
   -2.7753   -1.2968    0.0000 C   0  0
   -3.4553   -0.8297    0.0000 C   0  0
   -3.2211   -0.0386    0.0000 O   0  0
   -2.3964   -0.0169    0.0000 C   0  0
    0.3811   -2.2449    0.0000 C   0  0
    1.1959   -2.1344    0.0000 C   0  0
    1.7002   -2.7874    0.0000 C   0  0
    1.3870   -3.5506    0.0000 C   0  0
    1.8903   -4.2049    0.0000 O   0  0
    1.5758   -4.9681    0.0000 C   0  0
    2.0779   -5.6227    0.0000 C   0  0
    1.7620   -6.3849    0.0000 C   0  0
    0.9440   -6.4924    0.0000 C   0  0
    0.6264   -7.2543    0.0000 C   0  0
   -0.1922   -7.3607    0.0000 O   0  0
    0.4419   -5.8378    0.0000 C   0  0
    0.7578   -5.0756    0.0000 C   0  0
    0.5694   -3.6609    0.0000 C   0  0
    0.0651   -3.0080    0.0000 C   0  0
   -0.4038   -7.8683    0.0000 H   0  0
    1.9061   -0.5481    0.0000 H   0  0
    1.4312   -1.3737    0.0000 H   0  0
  1  2  1  0
  1 32  1  0
  1 33  1  0
  2  3  2  0
  3  4  1  0
  4  5  2  0
  5  6  1  0
  6  7  2  0
  7  2  1  0
  7  8  1  0
  8  9  2  0
  8 16  1  0
  9 10  1  0
 10  6  1  0
 10 11  1  0
 11 12  1  0
 12 13  1  0
 13 14  1  0
 14 15  1  0
 15 11  1  0
 16 17  2  0
 17 18  1  0
 18 19  2  0
 19 20  1  0
 19 29  1  0
 20 21  1  0
 21 22  2  0
 22 23  1  0
 23 24  2  0
 24 25  1  0
 24 27  1  0
 25 26  1  0
 26 31  1  0
 27 28  2  0
 28 21  1  0
 29 30  2  0
 30 16  1  0
M  END
> <CMPD_CHEMBLID>
CHEMBL1976376

> <STANDARD_TYPE>
Ki

> <RELATION>
>

> <STANDARD_VALUE>
2511.89

> <STANDARD_UNITS>
nM

> <Molecular_Weight>
402.44578

$$$$

  SciTegic11272012012D

 20 21  0  0  0  0            999 V2000
    1.9982   -1.9833    0.0000 C   0  0
    1.4273   -1.6522    0.0000 C   0  0
    0.8552   -1.9812    0.0000 C   0  0
    1.4285   -0.8267    0.0000 N   0  0
    0.7145   -0.4125    0.0000 C   0  0
    0.7145    0.4125    0.0000 N   0  0
    0.0000    0.8250    0.0000 C   0  0
   -0.7145    0.4125    0.0000 C   0  0
   -1.2861    0.7425    0.0000 Br  0  0
   -0.7145   -0.4125    0.0000 C   0  0
   -1.4285   -0.8267    0.0000 N   0  0
   -1.4273   -1.6522    0.0000 C   0  0
   -2.0931   -2.1274    0.0000 N   0  0
   -1.8354   -2.9112    0.0000 C   0  0
   -1.0104   -2.9083    0.0000 C   0  0
   -0.6206   -3.4409    0.0000 C   0  0
   -0.7582   -2.1228    0.0000 S   0  0
    0.0000   -0.8250    0.0000 N   0  0
   -1.9053   -0.5525    0.0000 H   0  0
    1.9054   -0.5525    0.0000 H   0  0
  1  2  1  0
  2  3  1  0
  2  4  1  0
  4  5  1  0
  4 20  1  0
  5  6  2  0
  6  7  1  0
  7  8  2  0
  8  9  1  0
  8 10  1  0
 10 11  1  0
 10 18  2  0
 11 12  1  0
 11 19  1  0
 12 13  2  0
 13 14  1  0
 14 15  2  0
 15 16  1  0
 15 17  1  0
 17 12  1  0
 18  5  1  0
M  END
> <CMPD_CHEMBLID>
CHEMBL1973013

> <STANDARD_TYPE>
Ki

> <RELATION>
>

> <STANDARD_VALUE>
2511.89

> <STANDARD_UNITS>
nM

> <Molecular_Weight>
328.23136

$$$$

  SciTegic11272012012D

 31 34  0  0  0  0            999 V2000
   -0.1742   -2.8724    0.0000 C   0  0
   -0.3789   -2.2450    0.0000 C   0  0
    0.1713   -1.6316    0.0000 C   0  0
    0.9918   -1.7178    0.0000 C   0  0
    1.3273   -0.9641    0.0000 N   0  0
    0.7144   -0.4125    0.0000 N   0  0
    0.7144    0.4125    0.0000 C   0  0
    1.4285    0.8267    0.0000 N   0  0
    1.4273    1.6521    0.0000 C   0  0
    2.1413    2.0663    0.0000 C   0  0
    2.1413    2.8914    0.0000 C   0  0
    2.8558    3.3039    0.0000 C   0  0
    3.5703    2.8914    0.0000 C   0  0
    3.5703    2.0664    0.0000 N   0  3
    4.1419    1.7365    0.0000 O   0  5
    2.8559    1.6539    0.0000 C   0  0
    0.0000    0.8250    0.0000 C   0  0
   -0.7144    0.4125    0.0000 C   0  0
   -0.7144   -0.4125    0.0000 N   0  0
    0.0000   -0.8250    0.0000 C   0  0
   -1.4293    0.8252    0.0000 N   0  0
   -2.1432    0.4116    0.0000 C   0  0
   -2.8583    0.8230    0.0000 C   0  0
   -2.8596    1.6480    0.0000 C   0  0
   -2.1458    2.0616    0.0000 C   0  0
   -1.4307    1.6502    0.0000 C   0  0
   -0.7173    2.0656    0.0000 C   0  0
   -0.7198    2.8910    0.0000 C   0  0
   -0.0065    3.3064    0.0000 O   0  0
   -0.0082    3.8564    0.0000 H   0  0
    1.9053    0.5525    0.0000 H   0  0
  1  2  1  0
  2  3  1  0
  3  4  1  0
  4  5  2  0
  5  6  1  0
  6  7  1  0
  7  8  1  0
  7 17  2  0
  8  9  1  0
  8 31  1  0
  9 10  1  0
 10 11  2  0
 11 12  1  0
 12 13  2  0
 13 14  1  0
 14 15  1  0
 14 16  2  0
 16 10  1  0
 17 18  1  0
 18 19  2  0
 18 21  1  0
 19 20  1  0
 20  3  2  0
 20  6  1  0
 21 22  1  0
 22 23  1  0
 23 24  1  0
 24 25  1  0
 25 26  1  0
 26 21  1  0
 26 27  1  0
 27 28  1  0
 28 29  1  0
 29 30  1  0
M  CHG  2  14   1  15  -1
M  END
> <CMPD_CHEMBLID>
CHEMBL2006674

> <STANDARD_TYPE>
Ki

> <RELATION>
>

> <STANDARD_VALUE>
2511.89

> <STANDARD_UNITS>
nM

> <Molecular_Weight>
396.48602

$$$$

  SciTegic11272012012D

 30 32  0  0  0  0            999 V2000
    2.0011   -0.4956    0.0000 F   0  0
    1.4293   -0.8252    0.0000 C   0  0
    1.4291   -1.4852    0.0000 F   0  0
    2.0007   -1.1555    0.0000 F   0  0
    0.7144   -0.4125    0.0000 C   0  0
    0.7144    0.4125    0.0000 C   0  0
    0.0000    0.8250    0.0000 C   0  0
   -0.7144    0.4125    0.0000 C   0  0
   -0.7144   -0.4125    0.0000 C   0  0
   -1.4285   -0.8267    0.0000 N   0  0
   -1.4273   -1.6521    0.0000 C   0  0
   -0.8551   -1.9812    0.0000 O   0  0
   -2.1413   -2.0663    0.0000 N   0  0
   -2.1402   -2.8918    0.0000 C   0  0
   -2.8532   -3.3068    0.0000 C   0  0
   -2.8503   -4.1318    0.0000 C   0  0
   -2.1344   -4.5418    0.0000 C   0  0
   -1.4214   -4.1269    0.0000 C   0  0
   -1.4242   -3.3019    0.0000 C   0  0
   -2.1316   -5.3673    0.0000 C   0  0
   -2.8439   -5.7834    0.0000 N   0  0
   -2.8398   -6.6084    0.0000 N   0  0
   -2.1232   -7.0173    0.0000 C   0  0
   -2.1199   -7.6773    0.0000 O   0  0
   -1.4109   -6.6012    0.0000 C   0  0
   -1.4150   -5.7762    0.0000 C   0  0
    0.0000   -0.8250    0.0000 C   0  0
   -3.3147   -6.8858    0.0000 H   0  0
   -2.6181   -1.7922    0.0000 H   0  0
   -1.9053   -0.5525    0.0000 H   0  0
  1  2  1  0
  2  3  1  0
  2  4  1  0
  2  5  1  0
  5  6  2  0
  6  7  1  0
  7  8  2  0
  8  9  1  0
  9 10  1  0
  9 27  2  0
 10 11  1  0
 10 30  1  0
 11 12  2  0
 11 13  1  0
 13 14  1  0
 13 29  1  0
 14 15  2  0
 15 16  1  0
 16 17  2  0
 17 18  1  0
 17 20  1  0
 18 19  2  0
 19 14  1  0
 20 21  2  0
 21 22  1  0
 22 23  1  0
 22 28  1  0
 23 24  2  0
 23 25  1  0
 25 26  2  0
 26 20  1  0
 27  5  1  0
M  END
> <CMPD_CHEMBLID>
CHEMBL2007124

> <STANDARD_TYPE>
Ki

> <RELATION>
>

> <STANDARD_VALUE>
2511.89

> <STANDARD_UNITS>
nM

> <Molecular_Weight>
374.31663

$$$$

  SciTegic11272012012D

 28 30  0  0  0  0            999 V2000
    2.0011   -0.4956    0.0000 F   0  0
    1.4293   -0.8252    0.0000 C   0  0
    1.4291   -1.4852    0.0000 F   0  0
    2.0007   -1.1555    0.0000 F   0  0
    0.7144   -0.4125    0.0000 C   0  0
    0.7144    0.4125    0.0000 C   0  0
    0.0000    0.8250    0.0000 C   0  0
   -0.7144    0.4125    0.0000 C   0  0
   -1.4290    0.8250    0.0000 C   0  0
   -1.4307    1.6504    0.0000 N   0  0
   -2.1461    2.0622    0.0000 C   0  0
   -2.7171    1.7312    0.0000 O   0  0
   -2.1478    2.8876    0.0000 N   0  0
   -2.8632    3.2993    0.0000 C   0  0
   -2.8662    4.1243    0.0000 C   0  0
   -3.5821    4.5344    0.0000 C   0  0
   -4.2951    4.1194    0.0000 C   0  0
   -4.2923    3.2944    0.0000 C   0  0
   -3.5764    2.8844    0.0000 N   0  0
   -5.0057    2.8792    0.0000 C   0  0
   -5.5761    2.5472    0.0000 N   0  0
   -2.1434    0.4125    0.0000 C   0  0
   -2.1434   -0.4125    0.0000 C   0  0
   -1.4290   -0.8250    0.0000 N   0  0
   -0.7144   -0.4125    0.0000 C   0  0
    0.0000   -0.8250    0.0000 C   0  0
   -1.6720    3.1634    0.0000 H   0  0
   -0.9548    1.9263    0.0000 H   0  0
  1  2  1  0
  2  3  1  0
  2  4  1  0
  2  5  1  0
  5  6  2  0
  6  7  1  0
  7  8  2  0
  8  9  1  0
  9 10  1  0
  9 22  2  0
 10 11  1  0
 10 28  1  0
 11 12  2  0
 11 13  1  0
 13 14  1  0
 13 27  1  0
 14 15  2  0
 15 16  1  0
 16 17  2  0
 17 18  1  0
 18 19  2  0
 18 20  1  0
 19 14  1  0
 20 21  3  0
 22 23  1  0
 23 24  2  0
 24 25  1  0
 25  8  1  0
 25 26  2  0
 26  5  1  0
M  END
> <CMPD_CHEMBLID>
CHEMBL1968868

> <STANDARD_TYPE>
Ki

> <RELATION>
=

> <STANDARD_VALUE>
2511.89

> <STANDARD_UNITS>
nM

> <Molecular_Weight>
357.28941

$$$$

  SciTegic11272012012D

 42 46  0  0  0  0            999 V2000
    2.9848   -5.6951    0.0000 C   0  0
    3.5580   -5.3680    0.0000 C   0  0
    4.2704   -5.7841    0.0000 C   0  0
    4.9870   -5.3752    0.0000 C   0  0
    4.9911   -4.5502    0.0000 C   0  0
    5.5644   -4.2231    0.0000 F   0  0
    4.2787   -4.1341    0.0000 C   0  0
    4.2812   -3.3086    0.0000 N   0  0
    3.5679   -2.8933    0.0000 C   0  0
    2.9952   -3.2214    0.0000 O   0  0
    3.5703   -2.0678    0.0000 N   0  0
    2.8570   -1.6525    0.0000 C   0  0
    2.8583   -0.8275    0.0000 C   0  0
    2.1445   -0.4139    0.0000 C   0  0
    1.4293   -0.8252    0.0000 C   0  0
    1.4281   -1.6502    0.0000 C   0  0
    2.1419   -2.0639    0.0000 C   0  0
    0.7144   -0.4125    0.0000 C   0  0
    0.7144    0.4125    0.0000 C   0  0
    0.0000    0.8250    0.0000 C   0  0
   -0.7144    0.4125    0.0000 C   0  0
   -1.4285    0.8267    0.0000 O   0  0
   -1.4273    1.6521    0.0000 C   0  0
   -2.1413    2.0663    0.0000 C   0  0
   -2.1402    2.8918    0.0000 C   0  0
   -2.8542    3.3060    0.0000 N   0  0
   -2.9300    4.1204    0.0000 C   0  0
   -3.7370    4.2920    0.0000 C   0  0
   -4.1495    3.5775    0.0000 C   0  0
   -3.5974    2.9644    0.0000 C   0  0
   -0.7144   -0.4125    0.0000 C   0  0
   -1.3273   -0.9641    0.0000 N   0  0
   -0.9918   -1.7178    0.0000 N   0  0
   -0.1713   -1.6316    0.0000 C   0  0
    0.3789   -2.2450    0.0000 N   0  0
    0.0000   -0.8250    0.0000 C   0  0
    3.5622   -4.5430    0.0000 C   0  0
    0.2083   -2.7679    0.0000 H   0  0
    0.9171   -2.1315    0.0000 H   0  0
   -1.8653   -0.8497    0.0000 H   0  0
    4.0476   -1.7944    0.0000 H   0  0
    4.7584   -3.0352    0.0000 H   0  0
  1  2  1  0
  2  3  2  0
  3  4  1  0
  4  5  2  0
  5  6  1  0
  5  7  1  0
  7  8  1  0
  7 37  2  0
  8  9  1  0
  8 42  1  0
  9 10  2  0
  9 11  1  0
 11 12  1  0
 11 41  1  0
 12 13  2  0
 13 14  1  0
 14 15  2  0
 15 16  1  0
 15 18  1  0
 16 17  2  0
 17 12  1  0
 18 19  2  0
 19 20  1  0
 20 21  2  0
 21 22  1  0
 21 31  1  0
 22 23  1  0
 23 24  1  0
 24 25  1  0
 25 26  1  0
 26 27  1  0
 27 28  2  0
 28 29  1  0
 29 30  2  0
 30 26  1  0
 31 32  1  0
 32 33  1  0
 32 40  1  0
 33 34  2  0
 34 35  1  0
 34 36  1  0
 35 38  1  0
 35 39  1  0
 36 18  1  0
 36 31  2  0
 37  2  1  0
M  END
> <CMPD_CHEMBLID>
CHEMBL2007266

> <STANDARD_TYPE>
Ki

> <RELATION>
>

> <STANDARD_VALUE>
2511.89

> <STANDARD_UNITS>
nM

> <Molecular_Weight>
498.55138

$$$$

  SciTegic11272012012D

 18 20  0  0  0  0            999 V2000
    1.4285   -0.8267    0.0000 O   0  0
    0.7144   -0.4125    0.0000 C   0  0
    0.7144    0.4125    0.0000 C   0  0
    0.0000    0.8250    0.0000 N   0  0
   -0.7144    0.4125    0.0000 C   0  0
   -1.4290    0.8250    0.0000 C   0  0
   -2.1434    0.4125    0.0000 C   0  0
   -2.1434   -0.4125    0.0000 C   0  0
   -1.4290   -0.8250    0.0000 C   0  0
   -0.7144   -0.4125    0.0000 C   0  0
    0.0000   -0.8250    0.0000 C   0  0
   -2.8582   -0.8252    0.0000 C   0  0
   -3.5734   -0.4139    0.0000 C   0  0
   -4.2872   -0.8275    0.0000 C   0  0
   -4.2859   -1.6525    0.0000 N   0  0
   -3.5708   -2.0639    0.0000 C   0  0
   -2.8570   -1.6503    0.0000 C   0  0
    1.4277   -1.3767    0.0000 H   0  0
  1  2  1  0
  1 18  1  0
  2  3  2  0
  3  4  1  0
  4  5  2  0
  5  6  1  0
  6  7  2  0
  7  8  1  0
  8  9  2  0
  8 12  1  0
  9 10  1  0
 10  5  1  0
 10 11  2  0
 11  2  1  0
 12 13  2  0
 13 14  1  0
 14 15  2  0
 15 16  1  0
 16 17  2  0
 17 12  1  0
M  END
> <CMPD_CHEMBLID>
CHEMBL1973868

> <STANDARD_TYPE>
Ki

> <RELATION>
>

> <STANDARD_VALUE>
2511.89

> <STANDARD_UNITS>
nM

> <Molecular_Weight>
222.242

$$$$

  SciTegic11272012012D

 31 33  0  0  0  0            999 V2000
   -0.0249   -6.4315    0.0000 C   0  0
   -0.0212   -5.7715    0.0000 C   0  0
    0.6956   -5.3623    0.0000 C   0  0
    0.7002   -4.5369    0.0000 N   0  0
    1.4171   -4.1276    0.0000 C   0  0
    1.9869   -4.4606    0.0000 O   0  0
    1.4216   -3.3022    0.0000 C   0  0
    2.1375   -2.8922    0.0000 C   0  0
    2.1403   -2.0672    0.0000 C   0  0
    1.4273   -1.6521    0.0000 C   0  0
    1.4285   -0.8267    0.0000 N   0  0
    0.7144   -0.4125    0.0000 C   0  0
    0.7144    0.4125    0.0000 N   0  0
    0.0000    0.8250    0.0000 C   0  0
    0.0017    1.6504    0.0000 C   0  0
    0.7171    2.0622    0.0000 C   0  0
    0.7188    2.8876    0.0000 C   0  0
    1.2908    3.2168    0.0000 F   0  0
    0.1478    3.2186    0.0000 F   0  0
    0.7199    3.5476    0.0000 F   0  0
   -0.7144    0.4125    0.0000 C   0  0
   -1.4986    0.6674    0.0000 C   0  0
   -1.9836    0.0000    0.0000 C   0  0
   -1.4986   -0.6674    0.0000 N   0  0
   -0.7144   -0.4125    0.0000 C   0  0
    0.0000   -0.8250    0.0000 N   0  0
    0.7114   -2.0622    0.0000 C   0  0
    0.7086   -2.8872    0.0000 C   0  0
   -1.6685   -1.1905    0.0000 H   0  0
    1.9053   -0.5525    0.0000 H   0  0
    0.2253   -4.2594    0.0000 H   0  0
  1  2  1  0
  2  3  1  0
  3  4  1  0
  4  5  1  0
  4 31  1  0
  5  6  2  0
  5  7  1  0
  7  8  2  0
  8  9  1  0
  9 10  2  0
 10 11  1  0
 10 27  1  0
 11 12  1  0
 11 30  1  0
 12 13  2  0
 13 14  1  0
 14 15  1  0
 14 21  2  0
 15 16  1  0
 16 17  1  0
 17 18  1  0
 17 19  1  0
 17 20  1  0
 21 22  1  0
 22 23  2  0
 23 24  1  0
 24 25  1  0
 24 29  1  0
 25 21  1  0
 25 26  2  0
 26 12  1  0
 27 28  2  0
 28  7  1  0
M  END
> <CMPD_CHEMBLID>
CHEMBL1984760

> <STANDARD_TYPE>
Ki

> <RELATION>
>

> <STANDARD_VALUE>
2511.89

> <STANDARD_UNITS>
nM

> <Molecular_Weight>
391.39021

$$$$

  SciTegic11272012012D

 23 26  0  0  0  0            999 V2000
    3.4312   -2.8062    0.0000 C   0  0
    2.8597   -2.4762    0.0000 O   0  0
    2.8591   -1.6507    0.0000 C   0  0
    2.1442   -1.2380    0.0000 C   0  0
    1.4294   -0.8252    0.0000 C   0  0
    0.7145   -0.4125    0.0000 C   0  0
    0.7145    0.4125    0.0000 C   0  0
    0.0000    0.8250    0.0000 C   0  0
   -0.7145    0.4125    0.0000 C   0  0
   -0.7145   -0.4125    0.0000 C   0  0
    0.0000   -0.8250    0.0000 C   0  0
   -0.1713   -1.6316    0.0000 C   0  0
   -0.9918   -1.7178    0.0000 C   0  0
   -1.6038   -2.2694    0.0000 C   0  0
   -2.3183   -1.8569    0.0000 N   0  0
   -2.1468   -1.0499    0.0000 N   0  0
   -1.3273   -0.9642    0.0000 C   0  0
   -1.5174   -3.0903    0.0000 C   0  0
   -0.8396   -3.5436    0.0000 C   0  0
   -1.0737   -4.3347    0.0000 C   0  0
   -1.8984   -4.3565    0.0000 C   0  0
   -2.1740   -3.5789    0.0000 S   0  0
   -2.5148   -0.6411    0.0000 H   0  0
  1  2  1  0
  2  3  1  0
  3  4  1  0
  4  5  3  0
  5  6  1  0
  6  7  2  0
  7  8  1  0
  8  9  2  0
  9 10  1  0
 10 11  2  0
 11  6  1  0
 11 12  1  0
 12 13  1  0
 13 14  1  0
 14 15  2  0
 14 18  1  0
 15 16  1  0
 16 17  1  0
 16 23  1  0
 17 10  1  0
 17 13  2  0
 18 19  2  0
 19 20  1  0
 20 21  2  0
 21 22  1  0
 22 18  1  0
M  END
> <CMPD_CHEMBLID>
CHEMBL1985206

> <STANDARD_TYPE>
Ki

> <RELATION>
>

> <STANDARD_VALUE>
2511.89

> <STANDARD_UNITS>
nM

> <Molecular_Weight>
306.38156

$$$$

  SciTegic11272012012D

 36 41  0  0  0  0            999 V2000
    1.7025    1.2951    0.0000 C   0  0
    1.4986    0.6674    0.0000 N   0  0
    1.9836    0.0000    0.0000 C   0  0
    2.6436    0.0000    0.0000 O   0  0
    1.4986   -0.6674    0.0000 N   0  0
    1.7536   -1.4525    0.0000 C   0  0
    2.5429   -1.6831    0.0000 C   0  0
    2.7380   -2.4847    0.0000 C   0  0
    2.1413   -3.0544    0.0000 C   0  0
    1.3496   -2.8226    0.0000 C   0  0
    1.1545   -2.0210    0.0000 C   0  0
    2.3365   -3.8565    0.0000 C   0  0
    1.8591   -4.3121    0.0000 C   0  0
    2.4923   -4.4978    0.0000 C   0  0
    3.1286   -4.0890    0.0000 C   0  0
    3.7618   -4.2748    0.0000 N   0  0
    0.7144   -0.4125    0.0000 C   0  0
    0.7144    0.4125    0.0000 C   0  0
    0.0000    0.8250    0.0000 C   0  0
   -0.7144    0.4125    0.0000 N   0  0
   -0.7144   -0.4125    0.0000 C   0  0
   -1.4290   -0.8250    0.0000 C   0  0
   -1.4290   -1.6500    0.0000 C   0  0
   -0.7144   -2.0625    0.0000 C   0  0
    0.0000   -1.6500    0.0000 C   0  0
    0.0000   -0.8250    0.0000 C   0  0
   -0.7144   -2.8879    0.0000 C   0  0
   -1.4283   -3.3016    0.0000 C   0  0
   -1.4270   -4.1266    0.0000 N   0  0
   -0.7118   -4.5380    0.0000 C   0  0
   -0.7105   -5.3630    0.0000 C   0  0
    0.0046   -5.7743    0.0000 C   0  0
    0.7184   -5.3607    0.0000 C   0  0
    0.7171   -4.5357    0.0000 C   0  0
    0.0020   -4.1243    0.0000 C   0  0
    0.0007   -3.2993    0.0000 C   0  0
  1  2  1  0
  2  3  1  0
  3  4  2  0
  3  5  1  0
  5  6  1  0
  5 17  1  0
  6  7  2  0
  7  8  1  0
  8  9  2  0
  9 10  1  0
  9 12  1  0
 10 11  2  0
 11  6  1  0
 12 13  1  0
 12 14  1  0
 12 15  1  0
 15 16  3  0
 17 18  2  0
 18  2  1  0
 18 19  1  0
 19 20  2  0
 20 21  1  0
 21 22  2  0
 22 23  1  0
 23 24  2  0
 24 25  1  0
 24 27  1  0
 25 26  2  0
 26 17  1  0
 26 21  1  0
 27 28  2  0
 28 29  1  0
 29 30  2  0
 30 31  1  0
 31 32  2  0
 32 33  1  0
 33 34  2  0
 34 35  1  0
 35 30  1  0
 35 36  2  0
 36 27  1  0
M  END
> <CMPD_CHEMBLID>
CHEMBL1879463

> <STANDARD_TYPE>
Ki

> <RELATION>
>

> <STANDARD_VALUE>
2511.89

> <STANDARD_UNITS>
nM

> <Molecular_Weight>
469.53652

$$$$

  SciTegic11272012012D

 35 39  0  0  0  0            999 V2000
    2.0007   -0.4977    0.0000 C   0  0
    1.4285   -0.8267    0.0000 C   0  0
    1.4276   -1.4867    0.0000 O   0  0
    0.7145   -0.4125    0.0000 C   0  0
    0.7145    0.4125    0.0000 C   0  0
    1.2861    0.7425    0.0000 C   0  0
    0.0000    0.8250    0.0000 C   0  0
    0.0000    1.6500    0.0000 C   0  0
   -0.7145    2.0625    0.0000 N   0  0
   -1.4290    1.6500    0.0000 C   0  0
   -2.1447    2.0613    0.0000 N   0  0
   -2.8590    1.6475    0.0000 C   0  0
   -3.5749    2.0575    0.0000 C   0  0
   -4.2880    1.6425    0.0000 C   0  0
   -4.2851    0.8175    0.0000 C   0  0
   -3.5692    0.4075    0.0000 C   0  0
   -2.8562    0.8225    0.0000 N   0  0
   -4.9985    0.4023    0.0000 N   0  0
   -5.7151    0.8112    0.0000 C   0  0
   -6.4275    0.3951    0.0000 C   0  0
   -6.4234   -0.4299    0.0000 N   0  0
   -5.7068   -0.8388    0.0000 C   0  0
   -4.9944   -0.4227    0.0000 C   0  0
   -1.4290    0.8250    0.0000 N   0  0
   -0.7145    0.4125    0.0000 C   0  0
   -0.7145   -0.4125    0.0000 N   0  0
   -1.4293   -0.8252    0.0000 C   0  0
   -2.1731   -0.4848    0.0000 C   0  0
   -2.7242   -1.0988    0.0000 C   0  0
   -2.3106   -1.8127    0.0000 C   0  0
   -1.5039   -1.6398    0.0000 C   0  0
    0.0000   -0.8250    0.0000 C   0  0
    0.0000   -1.4850    0.0000 O   0  0
   -6.8983   -0.7073    0.0000 H   0  0
   -2.1457    2.6113    0.0000 H   0  0
  1  2  1  0
  2  3  2  0
  2  4  1  0
  4  5  2  0
  5  6  1  0
  5  7  1  0
  7  8  2  0
  8  9  1  0
  9 10  2  0
 10 11  1  0
 10 24  1  0
 11 12  1  0
 11 35  1  0
 12 13  2  0
 13 14  1  0
 14 15  2  0
 15 16  1  0
 15 18  1  0
 16 17  2  0
 17 12  1  0
 18 19  1  0
 19 20  1  0
 20 21  1  0
 21 22  1  0
 21 34  1  0
 22 23  1  0
 23 18  1  0
 24 25  2  0
 25  7  1  0
 25 26  1  0
 26 27  1  0
 26 32  1  0
 27 28  1  0
 28 29  1  0
 29 30  1  0
 30 31  1  0
 31 27  1  0
 32  4  1  0
 32 33  2  0
M  END
> <CMPD_CHEMBLID>
CHEMBL189963

> <STANDARD_TYPE>
Ki

> <RELATION>
>

> <STANDARD_VALUE>
2511.89

> <STANDARD_UNITS>
nM

> <Molecular_Weight>
447.53276

$$$$

  SciTegic11272012012D

 33 36  0  0  0  0            999 V2000
    1.2861   -0.7425    0.0000 C   0  0
    0.7145   -0.4125    0.0000 N   0  0
    0.7145    0.4125    0.0000 C   0  0
    0.0000    0.8250    0.0000 C   0  0
   -0.7145    0.4125    0.0000 N   0  0
   -0.7145   -0.4125    0.0000 C   0  0
    0.0000   -0.8250    0.0000 C   0  0
   -1.4293    0.8252    0.0000 C   0  0
   -1.4307    1.6502    0.0000 C   0  0
   -2.1458    2.0616    0.0000 C   0  0
   -2.8596    1.6480    0.0000 C   0  0
   -3.5760    2.0581    0.0000 N   0  0
   -4.2896    1.6432    0.0000 C   0  0
   -5.0346    1.9810    0.0000 N   0  0
   -5.5835    1.3651    0.0000 C   0  0
   -6.4033    1.4488    0.0000 N   0  0
   -5.1674    0.6527    0.0000 C   0  0
   -4.3613    0.8284    0.0000 S   0  0
   -5.4972   -0.1025    0.0000 C   0  0
   -6.1531   -0.1759    0.0000 O   0  0
   -5.0077   -0.7671    0.0000 C   0  0
   -5.3367   -1.5236    0.0000 C   0  0
   -5.9925   -1.5982    0.0000 Cl  0  0
   -4.8461   -2.1869    0.0000 C   0  0
   -4.0264   -2.0936    0.0000 C   0  0
   -3.6973   -1.3372    0.0000 C   0  0
   -4.1879   -0.6739    0.0000 C   0  0
   -3.9246   -0.0686    0.0000 Cl  0  0
   -2.8583    0.8230    0.0000 C   0  0
   -2.1432    0.4116    0.0000 C   0  0
   -6.6288    1.9504    0.0000 H   0  0
   -6.7251    1.0028    0.0000 H   0  0
   -3.5778    2.6081    0.0000 H   0  0
  1  2  1  0
  2  3  1  0
  3  4  1  0
  4  5  1  0
  5  6  1  0
  5  8  1  0
  6  7  1  0
  7  2  1  0
  8  9  2  0
  9 10  1  0
 10 11  2  0
 11 12  1  0
 11 29  1  0
 12 13  1  0
 12 33  1  0
 13 14  2  0
 14 15  1  0
 15 16  1  0
 15 17  2  0
 16 31  1  0
 16 32  1  0
 17 18  1  0
 17 19  1  0
 18 13  1  0
 19 20  2  0
 19 21  1  0
 21 22  2  0
 22 23  1  0
 22 24  1  0
 24 25  2  0
 25 26  1  0
 26 27  2  0
 27 21  1  0
 27 28  1  0
 29 30  2  0
 30  8  1  0
M  END
> <CMPD_CHEMBLID>
CHEMBL1989043

> <STANDARD_TYPE>
Ki

> <RELATION>
>

> <STANDARD_VALUE>
2511.89

> <STANDARD_UNITS>
nM

> <Molecular_Weight>
462.39534

$$$$

  SciTegic11272012012D

 40 45  0  0  0  0            999 V2000
   -0.3304   -4.7002    0.0000 C   0  0
   -0.6751   -4.1374    0.0000 C   0  0
   -1.4998   -4.1588    0.0000 C   0  0
   -1.9307   -3.4552    0.0000 C   0  0
   -1.5369   -2.7303    0.0000 C   0  0
   -0.7122   -2.7089    0.0000 C   0  0
   -0.2812   -3.4124    0.0000 C   0  0
    0.5439   -3.3893    0.0000 N   0  0
    0.9369   -2.6634    0.0000 C   0  0
    1.7616   -2.6392    0.0000 N   0  0
    2.1529   -1.9129    0.0000 C   0  0
    1.7196   -1.2109    0.0000 C   0  0
    0.8977   -1.2355    0.0000 C   0  0
    0.5036   -1.9614    0.0000 N   0  0
    0.4125   -0.5678    0.0000 C   0  0
    0.6674    0.2169    0.0000 C   0  0
    0.0000    0.7018    0.0000 N   0  0
   -0.6674    0.2169    0.0000 C   0  0
   -1.4913    0.2172    0.0000 S   0  0
   -1.7462   -0.5674    0.0000 C   0  0
   -1.0788   -1.0523    0.0000 C   0  0
   -0.4125   -0.5678    0.0000 N   0  0
    1.4524    0.4720    0.0000 C   0  0
    2.1029   -0.0311    0.0000 C   0  0
    2.8661    0.2821    0.0000 C   0  0
    2.9764    1.0997    0.0000 C   0  0
    2.3235    1.6041    0.0000 C   0  0
    2.4322    2.4224    0.0000 N   0  0
    1.7783    2.9260    0.0000 C   0  0
    1.1681    2.6744    0.0000 O   0  0
    1.8869    3.7443    0.0000 C   0  0
    1.2329    4.2480    0.0000 C   0  0
    1.3404    5.0659    0.0000 C   0  0
    0.6857    5.5680    0.0000 C   0  0
   -0.0763    5.2521    0.0000 C   0  0
   -0.1839    4.4341    0.0000 C   0  0
    0.4708    3.9321    0.0000 C   0  0
    1.5603    1.2908    0.0000 C   0  0
    2.9406    2.6321    0.0000 H   0  0
    0.8320   -3.8578    0.0000 H   0  0
  1  2  1  0
  2  3  2  0
  3  4  1  0
  4  5  2  0
  5  6  1  0
  6  7  2  0
  7  2  1  0
  7  8  1  0
  8  9  1  0
  8 40  1  0
  9 10  2  0
 10 11  1  0
 11 12  2  0
 12 13  1  0
 13 14  2  0
 13 15  1  0
 14  9  1  0
 15 16  2  0
 16 17  1  0
 16 23  1  0
 17 18  2  0
 18 19  1  0
 19 20  1  0
 20 21  2  0
 21 22  1  0
 22 15  1  0
 22 18  1  0
 23 24  2  0
 24 25  1  0
 25 26  2  0
 26 27  1  0
 27 28  1  0
 27 38  2  0
 28 29  1  0
 28 39  1  0
 29 30  2  0
 29 31  1  0
 31 32  1  0
 32 33  2  0
 33 34  1  0
 34 35  2  0
 35 36  1  0
 36 37  2  0
 37 32  1  0
 38 23  1  0
M  END
> <CMPD_CHEMBLID>
CHEMBL1997909

> <STANDARD_TYPE>
Ki

> <RELATION>
>

> <STANDARD_VALUE>
2511.89

> <STANDARD_UNITS>
nM

> <Molecular_Weight>
516.61616

$$$$

  SciTegic11272012012D

 26 28  0  0  0  0            999 V2000
    1.2861   -0.7425    0.0000 C   0  0
    0.7144   -0.4125    0.0000 C   0  0
    0.7144    0.4125    0.0000 C   0  0
    0.0000    0.8250    0.0000 C   0  0
   -0.0017    1.6504    0.0000 O   0  0
   -0.7171    2.0622    0.0000 C   0  0
   -0.7188    2.8876    0.0000 C   0  0
   -1.4334    3.3002    0.0000 C   0  0
   -1.4334    4.1252    0.0000 C   0  0
   -0.7189    4.5377    0.0000 C   0  0
   -0.7189    5.1977    0.0000 Cl  0  0
   -0.0044    4.1252    0.0000 C   0  0
    0.5672    4.4552    0.0000 Cl  0  0
   -0.0044    3.3002    0.0000 C   0  0
   -0.7144    0.4125    0.0000 C   0  0
   -0.7144   -0.4125    0.0000 C   0  0
    0.0000   -0.8250    0.0000 C   0  0
   -0.0017   -1.6504    0.0000 C   0  0
   -0.7171   -2.0622    0.0000 N   0  0
   -0.9088   -2.8442    0.0000 C   0  0
   -1.7049   -2.6278    0.0000 C   0  0
   -1.4886   -1.8317    0.0000 C   0  0
   -2.4192   -3.0349    0.0000 C   0  0
   -2.4227   -3.6949    0.0000 O   0  0
   -3.1320   -2.6187    0.0000 O   0  0
   -3.6098   -2.8910    0.0000 H   0  0
  1  2  1  0
  2  3  2  0
  3  4  1  0
  4  5  1  0
  4 15  2  0
  5  6  1  0
  6  7  1  0
  7  8  2  0
  8  9  1  0
  9 10  2  0
 10 11  1  0
 10 12  1  0
 12 13  1  0
 12 14  2  0
 14  7  1  0
 15 16  1  0
 16 17  2  0
 17  2  1  0
 17 18  1  0
 18 19  1  0
 19 20  1  0
 20 21  1  0
 21 22  1  0
 21 23  1  0
 22 19  1  0
 23 24  2  0
 23 25  1  0
 25 26  1  0
M  END
> <CMPD_CHEMBLID>
CHEMBL1990223

> <STANDARD_TYPE>
Ki

> <RELATION>
>

> <STANDARD_VALUE>
2511.89

> <STANDARD_UNITS>
nM

> <Molecular_Weight>
380.26506

$$$$

  SciTegic11272012012D

 29 31  0  0  0  0            999 V2000
    1.9982   -1.9833    0.0000 D   0  0
    1.4273   -1.6522    0.0000 C   0  0
    0.8552   -1.9812    0.0000 D   0  0
    1.4261   -2.3122    0.0000 D   0  0
    1.4285   -0.8267    0.0000 O   0  0
    0.7145   -0.4125    0.0000 C   0  0
    0.7145    0.4125    0.0000 C   0  0
    0.0000    0.8250    0.0000 C   0  0
   -0.7145    0.4125    0.0000 C   0  0
   -0.7145   -0.4125    0.0000 C   0  0
    0.0000   -0.8250    0.0000 C   0  0
   -1.4285   -0.8267    0.0000 C   0  0
   -2.0007   -0.4977    0.0000 C   0  0
   -1.4273   -1.6522    0.0000 N   0  0
   -2.1414   -2.0664    0.0000 C   0  0
   -2.7135   -1.7374    0.0000 O   0  0
   -2.1402   -2.8919    0.0000 C   0  0
   -1.4711   -3.3624    0.0000 S   0  0
   -1.7233   -4.1480    0.0000 C   0  0
   -2.5483   -4.1508    0.0000 N   0  0
   -2.8060   -3.3671    0.0000 C   0  0
   -3.4332   -3.1616    0.0000 C   0  0
   -1.2358   -4.8141    0.0000 C   0  0
   -0.4140   -4.7865    0.0000 C   0  0
    0.0218   -5.4871    0.0000 C   0  0
   -0.3670   -6.2148    0.0000 N   0  0
   -1.1915   -6.2419    0.0000 C   0  0
   -1.6273   -5.5414    0.0000 C   0  0
   -0.9505   -1.9264    0.0000 H   0  0
  1  2  1  0
  2  3  1  0
  2  4  1  0
  2  5  1  0
  5  6  1  0
  6  7  2  0
  7  8  1  0
  8  9  2  0
  9 10  1  0
 10 11  2  0
 10 12  1  0
 11  6  1  0
 12 13  1  0
 12 14  1  0
 14 15  1  0
 14 29  1  0
 15 16  2  0
 15 17  1  0
 17 18  1  0
 18 19  1  0
 19 20  2  0
 19 23  1  0
 20 21  1  0
 21 17  2  0
 21 22  1  0
 23 24  2  0
 24 25  1  0
 25 26  2  0
 26 27  1  0
 27 28  2  0
 28 23  1  0
M  END
> <CMPD_CHEMBLID>
CHEMBL1998110

> <STANDARD_TYPE>
Ki

> <RELATION>
>

> <STANDARD_VALUE>
2511.89

> <STANDARD_UNITS>
nM

> <Molecular_Weight>
356.45655

$$$$

  SciTegic11272012012D

 31 34  0  0  0  0            999 V2000
    7.3410    3.0689    0.0000 Cl  0  0
    7.6137    2.4678    0.0000 C   0  0
    8.4347    2.3873    0.0000 C   0  0
    8.7755    1.6360    0.0000 C   0  0
    8.2952    0.9652    0.0000 C   0  0
    7.4741    1.0456    0.0000 C   0  0
    6.9922    0.3754    0.0000 N   0  0
    6.1708    0.4571    0.0000 C   0  0
    5.8992    1.0587    0.0000 O   0  0
    5.6889   -0.2131    0.0000 N   0  0
    4.8689   -0.1315    0.0000 C   0  0
    4.3190   -0.7465    0.0000 N   0  0
    3.5745   -0.4075    0.0000 C   0  0
    2.8602   -0.8213    0.0000 C   0  0
    2.1445   -0.4100    0.0000 C   0  0
    1.4302   -0.8238    0.0000 N   0  0
    0.7145   -0.4125    0.0000 C   0  0
    0.7145    0.4125    0.0000 N   0  0
    0.0000    0.8250    0.0000 C   0  0
   -0.7145    0.4125    0.0000 N   0  0
   -0.7145   -0.4125    0.0000 C   0  0
   -1.3273   -0.9642    0.0000 C   0  0
   -0.9918   -1.7179    0.0000 C   0  0
   -0.1713   -1.6316    0.0000 S   0  0
    0.0000   -0.8250    0.0000 C   0  0
    3.6475    0.4072    0.0000 C   0  0
    4.4539    0.5816    0.0000 S   0  0
    7.1334    1.7970    0.0000 C   0  0
    1.4312   -1.3738    0.0000 H   0  0
    5.9153   -0.7144    0.0000 H   0  0
    7.2186   -0.1258    0.0000 H   0  0
  1  2  1  0
  2  3  2  0
  3  4  1  0
  4  5  2  0
  5  6  1  0
  6  7  1  0
  6 28  2  0
  7  8  1  0
  7 31  1  0
  8  9  2  0
  8 10  1  0
 10 11  1  0
 10 30  1  0
 11 12  2  0
 12 13  1  0
 13 14  1  0
 13 26  2  0
 14 15  1  0
 15 16  1  0
 16 17  1  0
 16 29  1  0
 17 18  2  0
 18 19  1  0
 19 20  2  0
 20 21  1  0
 21 22  1  0
 22 23  2  0
 23 24  1  0
 24 25  1  0
 25 17  1  0
 25 21  2  0
 26 27  1  0
 27 11  1  0
 28  2  1  0
M  END
> <CMPD_CHEMBLID>
CHEMBL1986177

> <STANDARD_TYPE>
Ki

> <RELATION>
>

> <STANDARD_VALUE>
2511.89

> <STANDARD_UNITS>
nM

> <Molecular_Weight>
430.9343

$$$$

  SciTegic11272012012D

 26 28  0  0  0  0            999 V2000
    1.4276   -1.4867    0.0000 C   0  0
    1.4285   -0.8267    0.0000 O   0  0
    0.7145   -0.4125    0.0000 C   0  0
    0.7145    0.4125    0.0000 C   0  0
    0.0000    0.8250    0.0000 C   0  0
   -0.7145    0.4125    0.0000 C   0  0
   -0.7145   -0.4125    0.0000 C   0  0
    0.0000   -0.8250    0.0000 C   0  0
   -1.4285   -0.8267    0.0000 C   0  0
   -2.0007   -0.4977    0.0000 C   0  0
   -1.4273   -1.6522    0.0000 N   0  0
   -2.1414   -2.0664    0.0000 C   0  0
   -2.7135   -1.7374    0.0000 O   0  0
   -2.1402   -2.8919    0.0000 C   0  0
   -1.4711   -3.3624    0.0000 S   0  0
   -1.7233   -4.1480    0.0000 C   0  0
   -2.5483   -4.1508    0.0000 N   0  0
   -2.8060   -3.3671    0.0000 C   0  0
   -3.4332   -3.1616    0.0000 C   0  0
   -1.2358   -4.8141    0.0000 C   0  0
   -0.4140   -4.7865    0.0000 C   0  0
    0.0218   -5.4871    0.0000 C   0  0
   -0.3670   -6.2148    0.0000 N   0  0
   -1.1915   -6.2419    0.0000 C   0  0
   -1.6273   -5.5414    0.0000 C   0  0
   -0.9505   -1.9264    0.0000 H   0  0
  1  2  1  0
  2  3  1  0
  3  4  2  0
  4  5  1  0
  5  6  2  0
  6  7  1  0
  7  8  2  0
  7  9  1  0
  8  3  1  0
  9 10  1  0
  9 11  1  0
 11 12  1  0
 11 26  1  0
 12 13  2  0
 12 14  1  0
 14 15  1  0
 15 16  1  0
 16 17  2  0
 16 20  1  0
 17 18  1  0
 18 14  2  0
 18 19  1  0
 20 21  2  0
 21 22  1  0
 22 23  2  0
 23 24  1  0
 24 25  2  0
 25 20  1  0
M  END
> <CMPD_CHEMBLID>
CHEMBL1978567

> <STANDARD_TYPE>
Ki

> <RELATION>
>

> <STANDARD_VALUE>
2511.89

> <STANDARD_UNITS>
nM

> <Molecular_Weight>
353.43806

$$$$

  SciTegic11272012012D

 19 21  0  0  0  0            999 V2000
    0.3286   -3.1455    0.0000 O   0  0
    0.9886   -3.1466    0.0000 C   0  0
    1.3998   -3.8623    0.0000 C   0  0
    0.9861   -4.5767    0.0000 C   0  0
    1.3250   -5.3211    0.0000 C   0  0
    0.7100   -5.8710    0.0000 C   0  0
   -0.0030   -5.4560    0.0000 C   0  0
    0.1713   -4.6496    0.0000 S   0  0
    1.4024   -2.4324    0.0000 N   0  0
    0.9918   -1.7179    0.0000 C   0  0
    1.3273   -0.9642    0.0000 N   0  0
    0.7145   -0.4125    0.0000 C   0  0
    0.7145    0.4125    0.0000 C   0  0
    0.0000    0.8250    0.0000 C   0  0
   -0.7145    0.4125    0.0000 C   0  0
   -0.7145   -0.4125    0.0000 C   0  0
    0.0000   -0.8250    0.0000 C   0  0
    0.1713   -1.6316    0.0000 S   0  0
    1.9524   -2.4333    0.0000 H   0  0
  1  2  2  0
  2  3  1  0
  2  9  1  0
  3  4  1  0
  4  5  2  0
  5  6  1  0
  6  7  2  0
  7  8  1  0
  8  4  1  0
  9 10  1  0
  9 19  1  0
 10 11  2  0
 11 12  1  0
 12 13  2  0
 13 14  1  0
 14 15  2  0
 15 16  1  0
 16 17  2  0
 17 12  1  0
 17 18  1  0
 18 10  1  0
M  END
> <CMPD_CHEMBLID>
CHEMBL1421720

> <STANDARD_TYPE>
Ki

> <RELATION>
>

> <STANDARD_VALUE>
2511.89

> <STANDARD_UNITS>
nM

> <Molecular_Weight>
274.3613

$$$$

  SciTegic11272012012D

 26 29  0  0  0  0            999 V2000
    4.1437   -1.7350    0.0000 C   0  0
    3.5720   -2.0649    0.0000 O   0  0
    2.8570   -1.6525    0.0000 C   0  0
    2.8583   -0.8275    0.0000 C   0  0
    2.1445   -0.4139    0.0000 C   0  0
    1.4293   -0.8252    0.0000 C   0  0
    1.4281   -1.6502    0.0000 C   0  0
    2.1419   -2.0639    0.0000 C   0  0
    2.1388   -2.8893    0.0000 O   0  0
    1.5663   -3.2176    0.0000 C   0  0
    0.7144   -0.4125    0.0000 C   0  0
    0.7144    0.4125    0.0000 N   0  0
    0.0000    0.8250    0.0000 N   0  0
   -0.7144    0.4125    0.0000 C   0  0
   -1.4290    0.8250    0.0000 C   0  0
   -2.1434    0.4125    0.0000 C   0  0
   -2.1434   -0.4125    0.0000 C   0  0
   -1.4290   -0.8250    0.0000 C   0  0
   -1.4290   -1.6500    0.0000 C   0  0
   -2.1430   -2.0642    0.0000 O   0  0
   -2.1420   -2.7242    0.0000 C   0  0
   -0.7144   -2.0625    0.0000 C   0  0
    0.0000   -1.6500    0.0000 C   0  0
    0.0000   -0.8250    0.0000 C   0  0
   -0.7144   -0.4125    0.0000 C   0  0
    0.0000    1.3750    0.0000 H   0  0
  1  2  1  0
  2  3  1  0
  3  4  2  0
  4  5  1  0
  5  6  2  0
  6  7  1  0
  6 11  1  0
  7  8  2  0
  8  3  1  0
  8  9  1  0
  9 10  1  0
 11 12  2  0
 12 13  1  0
 13 14  1  0
 13 26  1  0
 14 15  2  0
 15 16  1  0
 16 17  2  0
 17 18  1  0
 18 19  2  0
 19 20  1  0
 19 22  1  0
 20 21  1  0
 22 23  2  0
 23 24  1  0
 24 11  1  0
 24 25  2  0
 25 14  1  0
 25 18  1  0
M  END
> <CMPD_CHEMBLID>
CHEMBL1997335

> <STANDARD_TYPE>
Ki

> <RELATION>
>

> <STANDARD_VALUE>
2511.89

> <STANDARD_UNITS>
nM

> <Molecular_Weight>
334.36852

$$$$

  SciTegic11272012012D

 29 32  0  0  0  0            999 V2000
    4.8608   -1.9762    0.0000 F   0  0
    4.2891   -1.6462    0.0000 C   0  0
    4.2891   -0.8213    0.0000 C   0  0
    3.5746   -0.4088    0.0000 C   0  0
    2.8601   -0.8213    0.0000 C   0  0
    2.1444   -0.4100    0.0000 C   0  0
    1.4302   -0.8237    0.0000 N   0  0
    0.7144   -0.4125    0.0000 C   0  0
    0.7144    0.4125    0.0000 N   0  0
    0.0000    0.8250    0.0000 C   0  0
   -0.7144    0.4125    0.0000 N   0  0
   -0.7144   -0.4125    0.0000 C   0  0
    0.0000   -0.8250    0.0000 C   0  0
   -0.1713   -1.6316    0.0000 C   0  0
   -0.9918   -1.7178    0.0000 N   0  0
   -1.3273   -0.9641    0.0000 N   0  0
   -2.1337   -0.7943    0.0000 C   0  0
   -2.6852   -1.4084    0.0000 C   0  0
   -2.4803   -2.0358    0.0000 Cl  0  0
   -3.4930   -1.2383    0.0000 C   0  0
   -4.0452   -1.8513    0.0000 C   0  0
   -4.8521   -1.6797    0.0000 C   0  0
   -5.1069   -0.8950    0.0000 C   0  0
   -5.7525   -0.7577    0.0000 Br  0  0
   -4.5548   -0.2820    0.0000 C   0  0
   -3.7478   -0.4536    0.0000 C   0  0
    2.8602   -1.6463    0.0000 C   0  0
    3.5747   -2.0587    0.0000 C   0  0
    1.4311   -1.3737    0.0000 H   0  0
  1  2  1  0
  2  3  2  0
  3  4  1  0
  4  5  2  0
  5  6  1  0
  5 27  1  0
  6  7  1  0
  7  8  1  0
  7 29  1  0
  8  9  2  0
  9 10  1  0
 10 11  2  0
 11 12  1  0
 12 13  2  0
 13  8  1  0
 13 14  1  0
 14 15  2  0
 15 16  1  0
 16 12  1  0
 16 17  1  0
 17 18  1  0
 18 19  1  0
 18 20  1  0
 20 21  2  0
 21 22  1  0
 22 23  2  0
 23 24  1  0
 23 25  1  0
 25 26  2  0
 26 20  1  0
 27 28  2  0
 28  2  1  0
M  END
> <CMPD_CHEMBLID>
CHEMBL2397809

> <STANDARD_TYPE>
Ki

> <RELATION>
=

> <STANDARD_VALUE>
2530

> <STANDARD_UNITS>
nM

> <Molecular_Weight>
460.72994

$$$$

  SciTegic11272012012D

 25 28  0  0  0  0            999 V2000
   -0.1742   -2.8725    0.0000 C   0  0
   -0.3790   -2.2450    0.0000 C   0  0
   -1.0247   -2.1088    0.0000 C   0  0
    0.1713   -1.6316    0.0000 N   0  0
    0.9918   -1.7179    0.0000 N   0  0
    1.3274   -0.9642    0.0000 C   0  0
    2.1348   -0.7925    0.0000 C   0  0
    2.3276    0.0107    0.0000 C   0  0
    3.1193    0.2426    0.0000 C   0  0
    3.7160   -0.3272    0.0000 C   0  0
    3.5209   -1.1289    0.0000 C   0  0
    3.9860   -1.8098    0.0000 N   0  0
    3.4816   -2.4627    0.0000 C   0  0
    2.7048   -2.1849    0.0000 C   0  0
    2.7291   -1.3607    0.0000 C   0  0
    0.7145   -0.4125    0.0000 C   0  0
    0.7145    0.4125    0.0000 C   0  0
    1.4285    0.8267    0.0000 N   0  0
    0.0000    0.8250    0.0000 N   0  0
   -0.7145    0.4125    0.0000 C   0  0
   -0.7145   -0.4125    0.0000 N   0  0
    0.0000   -0.8250    0.0000 C   0  0
    1.4277    1.3767    0.0000 H   0  0
    1.9053    0.5525    0.0000 H   0  0
    4.5357   -1.8258    0.0000 H   0  0
  1  2  1  0
  2  3  1  0
  2  4  1  0
  4  5  1  0
  5  6  2  0
  6  7  1  0
  6 16  1  0
  7  8  2  0
  8  9  1  0
  9 10  2  0
 10 11  1  0
 11 12  1  0
 12 13  1  0
 12 25  1  0
 13 14  2  0
 14 15  1  0
 15  7  1  0
 15 11  2  0
 16 17  2  0
 17 18  1  0
 17 19  1  0
 18 23  1  0
 18 24  1  0
 19 20  2  0
 20 21  1  0
 21 22  2  0
 22  4  1  0
 22 16  1  0
M  END
> <CMPD_CHEMBLID>
CHEMBL1242757

> <STANDARD_TYPE>
IC50

> <RELATION>
=

> <STANDARD_VALUE>
2600

> <STANDARD_UNITS>
nM

> <Molecular_Weight>
292.33844

$$$$

  SciTegic11272012012D

 37 40  0  0  0  0            999 V2000
    1.2861   -0.7425    0.0000 C   0  0
    0.7145   -0.4125    0.0000 C   0  0
    0.7145    0.4125    0.0000 C   0  0
    0.0000    0.8250    0.0000 C   0  0
   -0.7145    0.4125    0.0000 C   0  0
   -1.4302    0.8237    0.0000 N   0  0
   -2.1445    0.4100    0.0000 C   0  0
   -2.1433   -0.2500    0.0000 O   0  0
   -2.8602    0.8213    0.0000 C   0  0
   -3.6035    0.4797    0.0000 C   0  0
   -4.1555    1.0928    0.0000 C   0  0
   -3.7430    1.8073    0.0000 C   0  0
   -4.0767    2.5608    0.0000 C   0  0
   -3.5905    3.2279    0.0000 C   0  0
   -3.9247    3.9827    0.0000 C   0  0
   -4.5810    4.0528    0.0000 O   0  0
   -3.4385    4.6498    0.0000 N   0  0
   -3.7727    5.4046    0.0000 O   0  0
   -2.9360    1.6358    0.0000 S   0  0
   -0.7145   -0.4125    0.0000 C   0  0
    0.0000   -0.8250    0.0000 C   0  0
   -0.0017   -1.6505    0.0000 N   0  0
   -0.7172   -2.0622    0.0000 C   0  0
   -0.7958   -2.8764    0.0000 N   0  0
   -1.6034   -3.0451    0.0000 C   0  0
   -2.0134   -2.3292    0.0000 C   0  0
   -1.4592   -1.7181    0.0000 S   0  0
   -2.8340   -2.2401    0.0000 C   0  0
   -3.3678   -2.8655    0.0000 C   0  0
   -4.1790   -2.7150    0.0000 C   0  0
   -4.4542   -1.9372    0.0000 C   0  0
   -3.9182   -1.3100    0.0000 N   0  0
   -3.1070   -1.4605    0.0000 C   0  0
    0.4742   -1.9263    0.0000 H   0  0
   -3.4488    5.8491    0.0000 H   0  0
   -2.8917    4.5914    0.0000 H   0  0
   -1.4312    1.3738    0.0000 H   0  0
  1  2  1  0
  2  3  2  0
  3  4  1  0
  4  5  2  0
  5  6  1  0
  5 20  1  0
  6  7  1  0
  6 37  1  0
  7  8  2  0
  7  9  1  0
  9 10  2  0
 10 11  1  0
 11 12  2  0
 12 13  1  0
 12 19  1  0
 13 14  2  0
 14 15  1  0
 15 16  2  0
 15 17  1  0
 17 18  1  0
 17 36  1  0
 18 35  1  0
 19  9  1  0
 20 21  2  0
 21  2  1  0
 21 22  1  0
 22 23  1  0
 22 34  1  0
 23 24  2  0
 24 25  1  0
 25 26  2  0
 26 27  1  0
 26 28  1  0
 27 23  1  0
 28 29  2  0
 29 30  1  0
 30 31  2  0
 31 32  1  0
 32 33  2  0
 33 28  1  0
M  END
> <CMPD_CHEMBLID>
CHEMBL493315

> <STANDARD_TYPE>
IC50

> <RELATION>
=

> <STANDARD_VALUE>
2600

> <STANDARD_UNITS>
nM

> <Molecular_Weight>
477.55866

$$$$

  SciTegic11272012012D

 23 25  0  0  0  0            999 V2000
   -0.1743   -2.8739    0.0000 C   0  0
   -0.3791   -2.2462    0.0000 C   0  0
   -1.0252   -2.1098    0.0000 C   0  0
    0.1714   -1.6324    0.0000 N   0  0
    0.9923   -1.7187    0.0000 N   0  0
    1.3280   -0.9646    0.0000 C   0  0
    2.1358   -0.7929    0.0000 C   0  0
    2.7767   -1.2975    0.0000 C   0  0
    3.4571   -0.8300    0.0000 C   0  0
    4.0795   -1.0505    0.0000 C   0  0
    3.2227   -0.0386    0.0000 C   0  0
    3.7233    0.6165    0.0000 C   0  0
    3.4698    1.2262    0.0000 O   0  0
    2.3976   -0.0169    0.0000 S   0  0
    0.7148   -0.4127    0.0000 C   0  0
    0.7148    0.4127    0.0000 C   0  0
    1.4292    0.8271    0.0000 N   0  0
    0.0000    0.8254    0.0000 N   0  0
   -0.7148    0.4127    0.0000 C   0  0
   -0.7148   -0.4127    0.0000 N   0  0
    0.0000   -0.8254    0.0000 C   0  0
    1.4284    1.3774    0.0000 H   0  0
    1.9062    0.5528    0.0000 H   0  0
  1  2  1  0
  2  3  1  0
  2  4  1  0
  4  5  1  0
  5  6  2  0
  6  7  1  0
  6 15  1  0
  7  8  2  0
  8  9  1  0
  9 10  1  0
  9 11  2  0
 11 12  1  0
 11 14  1  0
 12 13  2  0
 14  7  1  0
 15 16  2  0
 16 17  1  0
 16 18  1  0
 17 22  1  0
 17 23  1  0
 18 19  2  0
 19 20  1  0
 20 21  2  0
 21  4  1  0
 21 15  1  0
M  END
> <CMPD_CHEMBLID>
CHEMBL1241947

> <STANDARD_TYPE>
IC50

> <RELATION>
=

> <STANDARD_VALUE>
2600

> <STANDARD_UNITS>
nM

> <Molecular_Weight>
301.3668

$$$$

  SciTegic11272012012D

 38 41  0  0  0  0            999 V2000
    1.2861   -0.7425    0.0000 C   0  0
    0.7144   -0.4125    0.0000 C   0  0
    0.7144    0.4125    0.0000 C   0  0
    0.0000    0.8250    0.0000 C   0  0
   -0.7144    0.4125    0.0000 C   0  0
   -1.4302    0.8237    0.0000 N   0  0
   -2.1444    0.4100    0.0000 C   0  0
   -2.1433   -0.2500    0.0000 O   0  0
   -2.8602    0.8213    0.0000 C   0  0
   -3.5747    0.4088    0.0000 C   0  0
   -4.2892    0.8213    0.0000 C   0  0
   -4.2892    1.6463    0.0000 C   0  0
   -5.0032    2.0604    0.0000 C   0  0
   -5.0021    2.8859    0.0000 C   0  0
   -5.7161    3.3001    0.0000 C   0  0
   -6.2882    2.9710    0.0000 O   0  0
   -5.7149    4.1255    0.0000 N   0  0
   -6.4289    4.5397    0.0000 O   0  0
   -3.5747    2.0588    0.0000 C   0  0
   -2.8602    1.6463    0.0000 C   0  0
   -0.7144   -0.4125    0.0000 C   0  0
    0.0000   -0.8250    0.0000 C   0  0
   -0.0017   -1.6504    0.0000 N   0  0
   -0.7171   -2.0622    0.0000 C   0  0
   -0.7958   -2.8764    0.0000 N   0  0
   -1.6034   -3.0451    0.0000 C   0  0
   -2.0134   -2.3292    0.0000 C   0  0
   -1.4592   -1.7180    0.0000 S   0  0
   -1.9417   -3.7980    0.0000 C   0  0
   -1.5118   -4.4989    0.0000 C   0  0
   -1.9057   -5.2238    0.0000 C   0  0
   -2.7304   -5.2452    0.0000 C   0  0
   -3.1613   -4.5417    0.0000 N   0  0
   -2.7674   -3.8168    0.0000 C   0  0
    0.4742   -1.9263    0.0000 H   0  0
   -6.4282    5.0897    0.0000 H   0  0
   -5.2381    4.3997    0.0000 H   0  0
   -1.4312    1.3737    0.0000 H   0  0
  1  2  1  0
  2  3  2  0
  3  4  1  0
  4  5  2  0
  5  6  1  0
  5 21  1  0
  6  7  1  0
  6 38  1  0
  7  8  2  0
  7  9  1  0
  9 10  2  0
 10 11  1  0
 11 12  2  0
 12 13  1  0
 12 19  1  0
 13 14  2  0
 14 15  1  0
 15 16  2  0
 15 17  1  0
 17 18  1  0
 17 37  1  0
 18 36  1  0
 19 20  2  0
 20  9  1  0
 21 22  2  0
 22  2  1  0
 22 23  1  0
 23 24  1  0
 23 35  1  0
 24 25  2  0
 25 26  1  0
 26 27  2  0
 26 29  1  0
 27 28  1  0
 28 24  1  0
 29 30  2  0
 30 31  1  0
 31 32  2  0
 32 33  1  0
 33 34  2  0
 34 29  1  0
M  END
> <CMPD_CHEMBLID>
CHEMBL1080580

> <STANDARD_TYPE>
IC50

> <RELATION>
=

> <STANDARD_VALUE>
2700

> <STANDARD_UNITS>
nM

> <Molecular_Weight>
471.53094

$$$$

  SciTegic11272012012D

 41 45  0  0  0  0            999 V2000
    2.3345   -5.4099    0.0000 O   0  0
    2.0015   -4.6546    0.0000 N   0  0
    2.4888   -3.9883    0.0000 C   0  0
    3.1449   -4.0594    0.0000 O   0  0
    2.1557   -3.2330    0.0000 C   0  0
    2.6430   -2.5666    0.0000 C   0  0
    2.3105   -1.8126    0.0000 C   0  0
    2.7242   -1.0988    0.0000 C   0  0
    2.1731   -0.4848    0.0000 C   0  0
    1.4293   -0.8252    0.0000 C   0  0
    1.5039   -1.6398    0.0000 S   0  0
    0.7144   -0.4125    0.0000 C   0  0
    0.7144    0.4125    0.0000 C   0  0
    0.0000    0.8250    0.0000 C   0  0
   -0.7144    0.4125    0.0000 C   0  0
   -1.4290    0.8250    0.0000 N   0  0
   -2.1434    0.4125    0.0000 C   0  0
   -2.1434   -0.4125    0.0000 N   0  0
   -1.4290   -0.8250    0.0000 C   0  0
   -1.4306   -1.6504    0.0000 N   0  0
   -2.1461   -2.0622    0.0000 C   0  0
   -2.1490   -2.8872    0.0000 C   0  0
   -2.8649   -3.2972    0.0000 C   0  0
   -3.5779   -2.8823    0.0000 C   0  0
   -4.2934   -3.2940    0.0000 O   0  0
   -4.2950   -4.1194    0.0000 C   0  0
   -5.0104   -4.5312    0.0000 C   0  0
   -5.0134   -5.3562    0.0000 C   0  0
   -5.7292   -5.7662    0.0000 C   0  0
   -6.4423   -5.3513    0.0000 C   0  0
   -6.4395   -4.5263    0.0000 C   0  0
   -7.0099   -4.1943    0.0000 F   0  0
   -5.7236   -4.1163    0.0000 C   0  0
   -3.5751   -2.0573    0.0000 C   0  0
   -4.1455   -1.7253    0.0000 Cl  0  0
   -2.8592   -1.6472    0.0000 C   0  0
   -0.7144   -0.4125    0.0000 C   0  0
    0.0000   -0.8250    0.0000 C   0  0
   -0.9548   -1.9263    0.0000 H   0  0
    1.4547   -4.5953    0.0000 H   0  0
    2.0099   -5.8539    0.0000 H   0  0
  1  2  1  0
  1 41  1  0
  2  3  1  0
  2 40  1  0
  3  4  2  0
  3  5  1  0
  5  6  2  0
  6  7  1  0
  7  8  2  0
  8  9  1  0
  9 10  2  0
 10 11  1  0
 10 12  1  0
 11  7  1  0
 12 13  2  0
 13 14  1  0
 14 15  2  0
 15 16  1  0
 16 17  2  0
 17 18  1  0
 18 19  2  0
 19 20  1  0
 19 37  1  0
 20 21  1  0
 20 39  1  0
 21 22  2  0
 22 23  1  0
 23 24  2  0
 24 25  1  0
 24 34  1  0
 25 26  1  0
 26 27  1  0
 27 28  2  0
 28 29  1  0
 29 30  2  0
 30 31  1  0
 31 32  1  0
 31 33  2  0
 33 27  1  0
 34 35  1  0
 34 36  2  0
 36 21  1  0
 37 15  1  0
 37 38  2  0
 38 12  1  0
M  END
> <CMPD_CHEMBLID>
CHEMBL1630108

> <STANDARD_TYPE>
IC50

> <RELATION>
=

> <STANDARD_VALUE>
2700

> <STANDARD_UNITS>
nM

> <Molecular_Weight>
546.9998

$$$$

  SciTegic11272012012D

 30 33  0  0  0  0            999 V2000
    3.5747   -2.7188    0.0000 F   0  0
    3.5747   -2.0588    0.0000 C   0  0
    4.2892   -1.6463    0.0000 C   0  0
    4.2892   -0.8213    0.0000 C   0  0
    3.5747   -0.4088    0.0000 C   0  0
    3.5747    0.2512    0.0000 F   0  0
    2.8602   -0.8213    0.0000 C   0  0
    2.1444   -0.4100    0.0000 C   0  0
    1.4302   -0.8237    0.0000 N   0  0
    0.7144   -0.4125    0.0000 C   0  0
    0.7144    0.4125    0.0000 N   0  0
    0.0000    0.8250    0.0000 C   0  0
   -0.7144    0.4125    0.0000 N   0  0
   -0.7144   -0.4125    0.0000 C   0  0
    0.0000   -0.8250    0.0000 C   0  0
   -0.1713   -1.6316    0.0000 C   0  0
   -0.9918   -1.7178    0.0000 N   0  0
   -1.3273   -0.9641    0.0000 N   0  0
   -2.1337   -0.7943    0.0000 C   0  0
   -2.6853   -1.4084    0.0000 C   0  0
   -2.4803   -2.0358    0.0000 Cl  0  0
   -3.4930   -1.2383    0.0000 C   0  0
   -4.0452   -1.8514    0.0000 C   0  0
   -4.8521   -1.6797    0.0000 C   0  0
   -5.1069   -0.8950    0.0000 C   0  0
   -5.7525   -0.7577    0.0000 Br  0  0
   -4.5548   -0.2820    0.0000 C   0  0
   -3.7479   -0.4536    0.0000 C   0  0
    2.8602   -1.6463    0.0000 C   0  0
    1.4312   -1.3737    0.0000 H   0  0
  1  2  1  0
  2  3  2  0
  3  4  1  0
  4  5  2  0
  5  6  1  0
  5  7  1  0
  7  8  1  0
  7 29  2  0
  8  9  1  0
  9 10  1  0
  9 30  1  0
 10 11  2  0
 11 12  1  0
 12 13  2  0
 13 14  1  0
 14 15  2  0
 15 10  1  0
 15 16  1  0
 16 17  2  0
 17 18  1  0
 18 14  1  0
 18 19  1  0
 19 20  1  0
 20 21  1  0
 20 22  1  0
 22 23  2  0
 23 24  1  0
 24 25  2  0
 25 26  1  0
 25 27  1  0
 27 28  2  0
 28 22  1  0
 29  2  1  0
M  END
> <CMPD_CHEMBLID>
CHEMBL2397810

> <STANDARD_TYPE>
Ki

> <RELATION>
=

> <STANDARD_VALUE>
2719

> <STANDARD_UNITS>
nM

> <Molecular_Weight>
478.72041

$$$$

  SciTegic11272012012D

 29 31  0  0  0  0            999 V2000
    2.0011   -0.4956    0.0000 F   0  0
    1.4293   -0.8252    0.0000 C   0  0
    1.4291   -1.4852    0.0000 F   0  0
    2.0007   -1.1555    0.0000 F   0  0
    0.7144   -0.4125    0.0000 C   0  0
    0.7144    0.4125    0.0000 C   0  0
    0.0000    0.8250    0.0000 C   0  0
   -0.7144    0.4125    0.0000 C   0  0
   -0.7144   -0.4125    0.0000 C   0  0
   -1.4285   -0.8267    0.0000 N   0  0
   -1.4273   -1.6521    0.0000 C   0  0
   -0.8551   -1.9812    0.0000 O   0  0
   -2.1413   -2.0663    0.0000 C   0  0
   -2.8559   -1.6539    0.0000 C   0  0
   -3.5703   -2.0664    0.0000 C   0  0
   -3.5703   -2.8914    0.0000 C   0  0
   -2.8558   -3.3039    0.0000 C   0  0
   -2.1414   -2.8913    0.0000 C   0  0
   -1.4273   -3.3056    0.0000 N   0  0
   -1.4285   -4.1310    0.0000 C   0  0
   -0.7145   -4.5453    0.0000 C   0  0
   -0.7144   -5.3703    0.0000 C   0  0
    0.0000   -5.7828    0.0000 C   0  0
    0.7144   -5.3703    0.0000 N   0  0
    0.7145   -4.5453    0.0000 C   0  0
    0.0001   -4.1328    0.0000 C   0  0
    0.0000   -0.8250    0.0000 C   0  0
   -0.9505   -3.0314    0.0000 H   0  0
   -1.9053   -0.5525    0.0000 H   0  0
  1  2  1  0
  2  3  1  0
  2  4  1  0
  2  5  1  0
  5  6  2  0
  6  7  1  0
  7  8  2  0
  8  9  1  0
  9 10  1  0
  9 27  2  0
 10 11  1  0
 10 29  1  0
 11 12  2  0
 11 13  1  0
 13 14  2  0
 14 15  1  0
 15 16  2  0
 16 17  1  0
 17 18  2  0
 18 13  1  0
 18 19  1  0
 19 20  1  0
 19 28  1  0
 20 21  1  0
 21 22  2  0
 22 23  1  0
 23 24  2  0
 24 25  1  0
 25 26  2  0
 26 21  1  0
 27  5  1  0
M  END
> <CMPD_CHEMBLID>
CHEMBL153843

> <STANDARD_TYPE>
IC50

> <RELATION>
=

> <STANDARD_VALUE>
2820

> <STANDARD_UNITS>
nM

> <Molecular_Weight>
371.35575

$$$$

  SciTegic11272012012D

 35 37  0  0  0  0            999 V2000
    2.0013   -0.4930    0.0000 C   0  0
    1.4302   -0.8237    0.0000 O   0  0
    0.7144   -0.4125    0.0000 C   0  0
    0.7144    0.4125    0.0000 C   0  0
    0.0000    0.8250    0.0000 C   0  0
    0.0000    1.6500    0.0000 N   0  0
   -0.7145    2.0625    0.0000 C   0  0
   -1.4289    1.6500    0.0000 N   0  0
   -1.4289    0.8250    0.0000 C   0  0
   -2.1447    0.4137    0.0000 N   0  0
   -2.8589    0.8275    0.0000 C   0  0
   -3.5749    0.4174    0.0000 C   0  0
   -4.2879    0.8324    0.0000 C   0  0
   -4.2850    1.6574    0.0000 C   0  0
   -3.5691    2.0674    0.0000 C   0  0
   -2.8561    1.6525    0.0000 C   0  0
   -3.5663    2.8929    0.0000 C   0  0
   -3.5640    3.5529    0.0000 C   0  0
   -0.7144    0.4125    0.0000 C   0  0
   -0.7144   -0.4125    0.0000 C   0  0
    0.0000   -0.8250    0.0000 C   0  0
   -0.0017   -1.6504    0.0000 O   0  0
   -0.7171   -2.0622    0.0000 C   0  0
   -0.7188   -2.8876    0.0000 C   0  0
   -1.4343   -3.2993    0.0000 C   0  0
   -1.4360   -4.1248    0.0000 C   0  0
   -2.1514   -4.5365    0.0000 C   0  0
   -2.1531   -5.3619    0.0000 C   0  0
   -2.8686   -5.7736    0.0000 C   0  0
   -3.4396   -5.4426    0.0000 O   0  0
   -2.8703   -6.5991    0.0000 N   0  0
   -3.5857   -7.0108    0.0000 O   0  0
   -3.5869   -7.5608    0.0000 H   0  0
   -2.3944   -6.8749    0.0000 H   0  0
   -2.1456   -0.1363    0.0000 H   0  0
  1  2  1  0
  2  3  1  0
  3  4  2  0
  4  5  1  0
  5  6  2  0
  6  7  1  0
  7  8  2  0
  8  9  1  0
  9 10  1  0
  9 19  2  0
 10 11  1  0
 10 35  1  0
 11 12  2  0
 12 13  1  0
 13 14  2  0
 14 15  1  0
 15 16  2  0
 15 17  1  0
 16 11  1  0
 17 18  3  0
 19  5  1  0
 19 20  1  0
 20 21  2  0
 21  3  1  0
 21 22  1  0
 22 23  1  0
 23 24  1  0
 24 25  1  0
 25 26  1  0
 26 27  1  0
 27 28  1  0
 28 29  1  0
 29 30  2  0
 29 31  1  0
 31 32  1  0
 31 34  1  0
 32 33  1  0
M  END
> <CMPD_CHEMBLID>
CHEMBL598797

> <STANDARD_TYPE>
IC50

> <RELATION>
=

> <STANDARD_VALUE>
2890

> <STANDARD_UNITS>
nM

> <Molecular_Weight>
434.48764

$$$$

  SciTegic11272012012D

 49 54  0  0  0  0            999 V2000
   -0.7296   -5.3603    0.0000 N   0  0
   -0.0145   -5.7727    0.0000 C   0  0
   -0.0158   -6.5977    0.0000 C   0  0
    0.6980   -7.0114    0.0000 C   0  0
    1.4131   -6.6000    0.0000 C   0  0
    1.4144   -5.7750    0.0000 C   0  0
    0.7006   -5.3613    0.0000 C   0  0
    0.7037   -4.5359    0.0000 N   0  0
    1.4198   -4.1253    0.0000 C   0  0
    1.9902   -4.4572    0.0000 O   0  0
    1.4227   -3.2999    0.0000 C   0  0
    2.1388   -2.8893    0.0000 C   0  0
    2.1419   -2.0639    0.0000 C   0  0
    2.8570   -1.6525    0.0000 C   0  0
    2.8583   -0.8275    0.0000 C   0  0
    2.1445   -0.4139    0.0000 C   0  0
    1.4293   -0.8252    0.0000 C   0  0
    1.4281   -1.6502    0.0000 C   0  0
    0.7144   -0.4125    0.0000 C   0  0
    0.7144    0.4125    0.0000 C   0  0
    0.0000    0.8250    0.0000 C   0  0
   -0.7144    0.4125    0.0000 C   0  0
   -1.4290    0.8250    0.0000 N   0  0
   -2.1434    0.4125    0.0000 C   0  0
   -2.1434   -0.4125    0.0000 N   0  0
   -1.4290   -0.8250    0.0000 C   0  0
   -1.4306   -1.6504    0.0000 N   0  0
   -2.1461   -2.0622    0.0000 C   0  0
   -2.1490   -2.8872    0.0000 C   0  0
   -2.8649   -3.2972    0.0000 C   0  0
   -3.5779   -2.8823    0.0000 C   0  0
   -4.2933   -3.2940    0.0000 O   0  0
   -4.2950   -4.1194    0.0000 C   0  0
   -5.0104   -4.5312    0.0000 C   0  0
   -5.0134   -5.3562    0.0000 C   0  0
   -5.7292   -5.7662    0.0000 C   0  0
   -6.4423   -5.3513    0.0000 C   0  0
   -6.4394   -4.5263    0.0000 C   0  0
   -7.0099   -4.1943    0.0000 F   0  0
   -5.7236   -4.1162    0.0000 C   0  0
   -3.5751   -2.0573    0.0000 C   0  0
   -4.1455   -1.7253    0.0000 Cl  0  0
   -2.8592   -1.6472    0.0000 C   0  0
   -0.7144   -0.4125    0.0000 C   0  0
    0.0000   -0.8250    0.0000 C   0  0
   -0.9548   -1.9263    0.0000 H   0  0
    0.2282   -4.2593    0.0000 H   0  0
   -1.2059   -5.6353    0.0000 H   0  0
   -0.7296   -4.8103    0.0000 H   0  0
  1  2  1  0
  1 48  1  0
  1 49  1  0
  2  3  2  0
  3  4  1  0
  4  5  2  0
  5  6  1  0
  6  7  2  0
  7  2  1  0
  7  8  1  0
  8  9  1  0
  8 47  1  0
  9 10  2  0
  9 11  1  0
 11 12  2  0
 12 13  1  0
 13 14  2  0
 14 15  1  0
 15 16  2  0
 16 17  1  0
 17 18  2  0
 17 19  1  0
 18 13  1  0
 19 20  2  0
 20 21  1  0
 21 22  2  0
 22 23  1  0
 23 24  2  0
 24 25  1  0
 25 26  2  0
 26 27  1  0
 26 44  1  0
 27 28  1  0
 27 46  1  0
 28 29  2  0
 29 30  1  0
 30 31  2  0
 31 32  1  0
 31 41  1  0
 32 33  1  0
 33 34  1  0
 34 35  2  0
 35 36  1  0
 36 37  2  0
 37 38  1  0
 38 39  1  0
 38 40  2  0
 40 34  1  0
 41 42  1  0
 41 43  2  0
 43 28  1  0
 44 22  1  0
 44 45  2  0
 45 19  1  0
M  END
> <CMPD_CHEMBLID>
CHEMBL1630114

> <STANDARD_TYPE>
IC50

> <RELATION>
=

> <STANDARD_VALUE>
2900

> <STANDARD_UNITS>
nM

> <Molecular_Weight>
616.08328

$$$$

  SciTegic11272012012D

 37 41  0  0  0  0            999 V2000
    3.3807   -1.0309    0.0000 C   0  0
    2.7242   -1.0988    0.0000 C   0  0
    2.1731   -0.4848    0.0000 C   0  0
    1.4293   -0.8252    0.0000 N   0  0
    1.5039   -1.6398    0.0000 C   0  0
    2.3105   -1.8126    0.0000 N   0  0
    0.7144   -0.4125    0.0000 C   0  0
    0.7144    0.4125    0.0000 C   0  0
    0.0000    0.8250    0.0000 C   0  0
   -0.7144    0.4125    0.0000 C   0  0
   -0.7144   -0.4125    0.0000 C   0  0
   -1.4285   -0.8267    0.0000 N   0  0
   -1.4273   -1.6521    0.0000 C   0  0
   -0.8551   -1.9812    0.0000 O   0  0
   -2.1413   -2.0663    0.0000 C   0  0
   -2.1414   -2.8913    0.0000 C   0  0
   -2.8558   -3.3039    0.0000 C   0  0
   -3.5703   -2.8914    0.0000 C   0  0
   -4.1419   -3.2214    0.0000 C   0  0
   -3.5703   -2.0664    0.0000 C   0  0
   -4.2843   -1.6523    0.0000 N   0  0
   -4.2832   -0.8268    0.0000 C   0  0
   -4.9963   -0.4118    0.0000 N   0  0
   -4.9934    0.4132    0.0000 C   0  0
   -4.2775    0.8232    0.0000 C   0  0
   -3.5644    0.4083    0.0000 C   0  0
   -3.5673   -0.4167    0.0000 N   0  0
   -2.8482    0.8186    0.0000 C   0  0
   -2.8440    1.6436    0.0000 C   0  0
   -2.1275    2.0525    0.0000 C   0  0
   -1.4151    1.6364    0.0000 C   0  0
   -1.4192    0.8114    0.0000 N   0  0
   -2.1358    0.4025    0.0000 C   0  0
   -2.8559   -1.6539    0.0000 C   0  0
    0.0000   -0.8250    0.0000 C   0  0
   -4.7611   -1.9264    0.0000 H   0  0
   -1.9053   -0.5525    0.0000 H   0  0
  1  2  1  0
  2  3  2  0
  3  4  1  0
  4  5  1  0
  4  7  1  0
  5  6  2  0
  6  2  1  0
  7  8  2  0
  8  9  1  0
  9 10  2  0
 10 11  1  0
 11 12  1  0
 11 35  2  0
 12 13  1  0
 12 37  1  0
 13 14  2  0
 13 15  1  0
 15 16  2  0
 16 17  1  0
 17 18  2  0
 18 19  1  0
 18 20  1  0
 20 21  1  0
 20 34  2  0
 21 22  1  0
 21 36  1  0
 22 23  2  0
 23 24  1  0
 24 25  2  0
 25 26  1  0
 26 27  2  0
 26 28  1  0
 27 22  1  0
 28 29  2  0
 29 30  1  0
 30 31  2  0
 31 32  1  0
 32 33  2  0
 33 28  1  0
 34 15  1  0
 35  7  1  0
M  END
> <CMPD_CHEMBLID>
CHEMBL2311808

> <STANDARD_TYPE>
IC50

> <RELATION>
=

> <STANDARD_VALUE>
2953

> <STANDARD_UNITS>
nM

> <Molecular_Weight>
461.51782

$$$$

  SciTegic11272012012D

 30 33  0  0  0  0            999 V2000
    2.2541   -3.0993    0.0000 C   0  0
    2.6435   -2.5664    0.0000 C   0  0
    3.2996   -2.6374    0.0000 C   0  0
    2.3108   -1.8125    0.0000 N   0  0
    1.5040   -1.6398    0.0000 N   0  0
    1.4293   -0.8252    0.0000 C   0  0
    0.7145   -0.4125    0.0000 C   0  0
    0.7145    0.4125    0.0000 C   0  0
    0.0000    0.8250    0.0000 C   0  0
   -0.7145    0.4125    0.0000 C   0  0
   -1.4290    0.8250    0.0000 N   0  0
   -2.1435    0.4125    0.0000 C   0  0
   -2.8592    0.8238    0.0000 N   0  0
   -3.5735    0.4100    0.0000 N   0  0
   -2.1435   -0.4125    0.0000 C   0  0
   -1.4290   -0.8250    0.0000 C   0  0
   -0.7145   -0.4125    0.0000 C   0  0
    0.0000   -0.8250    0.0000 C   0  0
    2.1728   -0.4850    0.0000 C   0  0
    2.4289    0.2993    0.0000 C   0  0
    1.8786    0.9146    0.0000 N   0  0
    3.2361    0.4697    0.0000 N   0  0
    3.7873   -0.1443    0.0000 C   0  0
    3.5312   -0.9285    0.0000 N   0  0
    2.7239   -1.0989    0.0000 C   0  0
    2.0501    1.4372    0.0000 H   0  0
    1.3403    0.8020    0.0000 H   0  0
   -4.0504    0.6841    0.0000 H   0  0
   -3.5725   -0.1400    0.0000 H   0  0
   -2.8602    1.3738    0.0000 H   0  0
  1  2  1  0
  2  3  1  0
  2  4  1  0
  4  5  1  0
  5  6  2  0
  6  7  1  0
  6 19  1  0
  7  8  2  0
  8  9  1  0
  9 10  2  0
 10 11  1  0
 11 12  2  0
 12 13  1  0
 12 15  1  0
 13 14  1  0
 13 30  1  0
 14 28  1  0
 14 29  1  0
 15 16  2  0
 16 17  1  0
 17 10  1  0
 17 18  2  0
 18  7  1  0
 19 20  2  0
 20 21  1  0
 20 22  1  0
 21 26  1  0
 21 27  1  0
 22 23  2  0
 23 24  1  0
 24 25  2  0
 25  4  1  0
 25 19  1  0
M  END
> <CMPD_CHEMBLID>
CHEMBL1241950

> <STANDARD_TYPE>
IC50

> <RELATION>
=

> <STANDARD_VALUE>
3000

> <STANDARD_UNITS>
nM

> <Molecular_Weight>
334.37842

$$$$

  SciTegic11272012012D

 34 37  0  0  0  0            999 V2000
    1.2861   -0.7425    0.0000 C   0  0
    0.7145   -0.4125    0.0000 N   0  0
    0.7145    0.4125    0.0000 C   0  0
    0.0000    0.8250    0.0000 C   0  0
   -0.7145    0.4125    0.0000 C   0  0
   -0.7145   -0.4125    0.0000 C   0  0
    0.0000   -0.8250    0.0000 C   0  0
   -1.4302    0.8238    0.0000 N   0  0
   -2.1445    0.4100    0.0000 C   0  0
   -2.1433   -0.2500    0.0000 O   0  0
   -2.8602    0.8213    0.0000 C   0  0
   -2.9361    1.6358    0.0000 C   0  0
   -3.7431    1.8073    0.0000 C   0  0
   -4.1556    1.0928    0.0000 N   0  0
   -3.6035    0.4797    0.0000 C   0  0
   -3.7703   -0.3287    0.0000 C   0  0
   -4.5732   -0.5229    0.0000 C   0  0
   -4.8035   -1.3151    0.0000 C   0  0
   -5.4446   -1.4724    0.0000 Cl  0  0
   -4.2327   -1.9107    0.0000 C   0  0
   -3.4314   -1.7141    0.0000 C   0  0
   -3.2011   -0.9219    0.0000 C   0  0
   -2.5601   -0.7644    0.0000 C   0  0
   -4.0788    2.5614    0.0000 C   0  0
   -3.6465    3.2609    0.0000 C   0  0
   -4.0379    3.9871    0.0000 C   0  0
   -4.8625    4.0113    0.0000 N   0  0
   -5.2958    3.3093    0.0000 C   0  0
   -6.1210    3.3319    0.0000 N   0  0
   -4.9045    2.5830    0.0000 N   0  0
   -6.4092    2.8634    0.0000 H   0  0
   -6.3827    3.8156    0.0000 H   0  0
   -4.7025    1.0353    0.0000 H   0  0
   -1.4312    1.3738    0.0000 H   0  0
  1  2  1  0
  2  3  1  0
  3  4  1  0
  4  5  1  0
  5  6  1  0
  5  8  1  0
  6  7  1  0
  7  2  1  0
  8  9  1  0
  8 34  1  0
  9 10  2  0
  9 11  1  0
 11 12  1  0
 12 13  2  0
 13 14  1  0
 13 24  1  0
 14 15  1  0
 14 33  1  0
 15 11  2  0
 15 16  1  0
 16 17  2  0
 17 18  1  0
 18 19  1  0
 18 20  2  0
 20 21  1  0
 21 22  2  0
 22 16  1  0
 22 23  1  0
 24 25  2  0
 25 26  1  0
 26 27  2  0
 27 28  1  0
 28 29  1  0
 28 30  2  0
 29 31  1  0
 29 32  1  0
 30 24  1  0
M  END
> <CMPD_CHEMBLID>
CHEMBL3330114

> <STANDARD_TYPE>
IC50

> <RELATION>
>

> <STANDARD_VALUE>
3000

> <STANDARD_UNITS>
nM

> <Molecular_Weight>
424.9265

$$$$

  SciTegic11272012012D

 32 34  0  0  0  0            999 V2000
    0.1154   -5.5468    0.0000 C   0  0
   -0.0167   -4.9001    0.0000 N   0  0
    0.6007   -4.3522    0.0000 C   0  0
    0.4354   -3.5435    0.0000 C   0  0
    1.0529   -2.9956    0.0000 N   0  0
    0.8876   -2.1868    0.0000 C   0  0
    0.2614   -1.9781    0.0000 O   0  0
    1.5039   -1.6399    0.0000 C   0  0
    2.3106   -1.8126    0.0000 C   0  0
    2.7243   -1.0988    0.0000 C   0  0
    2.1732   -0.4848    0.0000 N   0  0
    1.4293   -0.8252    0.0000 C   0  0
    0.7145   -0.4125    0.0000 C   0  0
    0.7145    0.4125    0.0000 C   0  0
    0.0000    0.8250    0.0000 C   0  0
    0.0000    1.4850    0.0000 Cl  0  0
   -0.7145    0.4125    0.0000 C   0  0
   -0.7145   -0.4125    0.0000 C   0  0
    0.0000   -0.8250    0.0000 C   0  0
    0.0000   -1.4850    0.0000 C   0  0
    3.5453   -1.0138    0.0000 C   0  0
    4.0759   -1.6420    0.0000 C   0  0
    4.8878   -1.4955    0.0000 C   0  0
    5.1670   -0.7191    0.0000 N   0  0
    4.6342   -0.0893    0.0000 C   0  0
    4.9119    0.6881    0.0000 N   0  0
    3.8223   -0.2357    0.0000 N   0  0
    4.5561    1.1076    0.0000 H   0  0
    5.4530    0.7867    0.0000 H   0  0
    2.2852    0.0537    0.0000 H   0  0
    1.5747   -3.1694    0.0000 H   0  0
   -0.5385   -4.7263    0.0000 H   0  0
  1  2  1  0
  2  3  1  0
  2 32  1  0
  3  4  1  0
  4  5  1  0
  5  6  1  0
  5 31  1  0
  6  7  2  0
  6  8  1  0
  8  9  1  0
  9 10  2  0
 10 11  1  0
 10 21  1  0
 11 12  1  0
 11 30  1  0
 12  8  2  0
 12 13  1  0
 13 14  2  0
 14 15  1  0
 15 16  1  0
 15 17  2  0
 17 18  1  0
 18 19  2  0
 19 13  1  0
 19 20  1  0
 21 22  2  0
 22 23  1  0
 23 24  2  0
 24 25  1  0
 25 26  1  0
 25 27  2  0
 26 28  1  0
 26 29  1  0
 27 21  1  0
M  END
> <CMPD_CHEMBLID>
CHEMBL3330108

> <STANDARD_TYPE>
IC50

> <RELATION>
>

> <STANDARD_VALUE>
3000

> <STANDARD_UNITS>
nM

> <Molecular_Weight>
384.86264

$$$$

  SciTegic11272012012D

 38 41  0  0  0  0            999 V2000
    1.4302   -0.8237    0.0000 N   0  0
    0.7144   -0.4125    0.0000 C   0  0
    0.7144    0.4125    0.0000 N   0  0
    0.0000    0.8250    0.0000 C   0  0
   -0.7144    0.4125    0.0000 N   0  0
   -0.7144   -0.4125    0.0000 C   0  0
   -1.4302   -0.8238    0.0000 N   0  0
   -2.1444   -0.4100    0.0000 C   0  0
   -2.8604   -0.8200    0.0000 C   0  0
   -3.5734   -0.4051    0.0000 C   0  0
   -3.5706    0.4199    0.0000 C   0  0
   -4.2849    0.8337    0.0000 O   0  0
   -5.0006    0.4224    0.0000 C   0  0
   -5.7149    0.8361    0.0000 C   0  0
   -6.4307    0.4261    0.0000 C   0  0
   -7.1438    0.8411    0.0000 C   0  0
   -7.1409    1.6660    0.0000 C   0  0
   -6.4251    2.0761    0.0000 C   0  0
   -5.7120    1.6612    0.0000 N   0  0
   -2.8546    0.8299    0.0000 C   0  0
   -2.8524    1.4899    0.0000 Cl  0  0
   -2.1416    0.4150    0.0000 C   0  0
    0.0000   -0.8250    0.0000 C   0  0
    0.0000   -1.6504    0.0000 C   0  0
   -0.6667   -2.1244    0.0000 O   0  0
   -0.4105   -2.9086    0.0000 C   0  0
    0.4145   -2.9073    0.0000 C   0  0
    0.9013   -3.5722    0.0000 C   0  0
    1.7219   -3.4834    0.0000 N   0  0
    2.2096   -4.1494    0.0000 C   0  0
    1.9431   -4.7532    0.0000 O   0  0
    3.0303   -4.0606    0.0000 C   0  0
    3.4202   -4.5931    0.0000 C   0  0
    0.6682   -2.1223    0.0000 N   0  0
    1.9440   -2.9802    0.0000 H   0  0
   -1.4311   -1.3738    0.0000 H   0  0
    1.9061   -0.5481    0.0000 H   0  0
    1.4311   -1.3737    0.0000 H   0  0
  1  2  1  0
  1 37  1  0
  1 38  1  0
  2  3  2  0
  3  4  1  0
  4  5  2  0
  5  6  1  0
  6  7  1  0
  6 23  2  0
  7  8  1  0
  7 36  1  0
  8  9  2  0
  9 10  1  0
 10 11  2  0
 11 12  1  0
 11 20  1  0
 12 13  1  0
 13 14  1  0
 14 15  2  0
 15 16  1  0
 16 17  2  0
 17 18  1  0
 18 19  2  0
 19 14  1  0
 20 21  1  0
 20 22  2  0
 22  8  1  0
 23  2  1  0
 23 24  1  0
 24 25  1  0
 25 26  1  0
 26 27  2  0
 27 28  1  0
 27 34  1  0
 28 29  1  0
 29 30  1  0
 29 35  1  0
 30 31  2  0
 30 32  1  0
 32 33  2  0
 34 24  2  0
M  END
> <CMPD_CHEMBLID>
CHEMBL2035810

> <STANDARD_TYPE>
IC50

> <RELATION>
>

> <STANDARD_VALUE>
3000

> <STANDARD_UNITS>
nM

> <Molecular_Weight>
477.903

$$$$

  SciTegic11272012012D

 29 32  0  0  0  0            999 V2000
    0.5229   -3.1659    0.0000 Cl  0  0
   -0.1229   -3.0297    0.0000 C   0  0
   -0.3789   -2.2450    0.0000 C   0  0
    0.1713   -1.6316    0.0000 N   0  0
    0.9918   -1.7178    0.0000 N   0  0
    1.3273   -0.9641    0.0000 C   0  0
    0.7144   -0.4125    0.0000 C   0  0
    0.7144    0.4125    0.0000 C   0  0
    1.4285    0.8267    0.0000 N   0  0
    1.4273    1.6521    0.0000 C   0  0
    2.1413    2.0663    0.0000 C   0  0
    2.1413    2.8914    0.0000 C   0  0
    2.8558    3.3039    0.0000 C   0  0
    3.5703    2.8914    0.0000 C   0  0
    4.1418    3.2215    0.0000 Br  0  0
    3.5703    2.0664    0.0000 C   0  0
    2.8559    1.6539    0.0000 C   0  0
    0.0000    0.8250    0.0000 N   0  0
   -0.7144    0.4125    0.0000 C   0  0
   -0.7144   -0.4125    0.0000 N   0  0
    0.0000   -0.8250    0.0000 C   0  0
   -0.6741   -3.6442    0.0000 C   0  0
   -0.4193   -4.4289    0.0000 C   0  0
   -0.9714   -5.0419    0.0000 C   0  0
   -1.7784   -4.8702    0.0000 C   0  0
   -2.2201   -5.3606    0.0000 Br  0  0
   -2.0332   -4.0856    0.0000 C   0  0
   -1.4810   -3.4726    0.0000 C   0  0
    1.9053    0.5525    0.0000 H   0  0
  1  2  1  0
  2  3  1  0
  2 22  1  0
  3  4  1  0
  4  5  1  0
  5  6  2  0
  6  7  1  0
  7  8  2  0
  8  9  1  0
  8 18  1  0
  9 10  1  0
  9 29  1  0
 10 11  1  0
 11 12  2  0
 12 13  1  0
 13 14  2  0
 14 15  1  0
 14 16  1  0
 16 17  2  0
 17 11  1  0
 18 19  2  0
 19 20  1  0
 20 21  2  0
 21  4  1  0
 21  7  1  0
 22 23  2  0
 23 24  1  0
 24 25  2  0
 25 26  1  0
 25 27  1  0
 27 28  2  0
 28 22  1  0
M  END
> <CMPD_CHEMBLID>
CHEMBL2397812

> <STANDARD_TYPE>
Ki

> <RELATION>
=

> <STANDARD_VALUE>
3000

> <STANDARD_UNITS>
nM

> <Molecular_Weight>
521.63554

$$$$

  SciTegic11272012012D

 34 36  0  0  0  0            999 V2000
    1.0529   -2.9956    0.0000 N   0  0
    0.8876   -2.1868    0.0000 C   0  0
    0.2614   -1.9781    0.0000 O   0  0
    1.5039   -1.6399    0.0000 C   0  0
    2.3106   -1.8126    0.0000 C   0  0
    2.7243   -1.0988    0.0000 C   0  0
    2.1732   -0.4848    0.0000 N   0  0
    1.4293   -0.8252    0.0000 C   0  0
    0.7145   -0.4125    0.0000 C   0  0
    0.0000   -0.8250    0.0000 C   0  0
   -0.7145   -0.4125    0.0000 C   0  0
   -0.7145    0.4125    0.0000 C   0  0
    0.0000    0.8250    0.0000 C   0  0
    0.7145    0.4125    0.0000 C   0  0
    1.4294    0.8252    0.0000 C   0  0
    1.4298    1.4853    0.0000 F   0  0
    2.0008    0.4951    0.0000 F   0  0
    2.0011    1.1550    0.0000 F   0  0
   -1.4294   -0.8252    0.0000 C   0  0
   -1.4298   -1.4853    0.0000 F   0  0
   -2.0008   -0.4951    0.0000 F   0  0
   -2.0011   -1.1550    0.0000 F   0  0
    3.5453   -1.0138    0.0000 C   0  0
    4.0759   -1.6420    0.0000 C   0  0
    4.8878   -1.4955    0.0000 C   0  0
    5.1670   -0.7191    0.0000 N   0  0
    4.6342   -0.0893    0.0000 C   0  0
    4.9119    0.6881    0.0000 N   0  0
    3.8223   -0.2357    0.0000 N   0  0
    4.5561    1.1076    0.0000 H   0  0
    5.4530    0.7867    0.0000 H   0  0
    2.2852    0.0537    0.0000 H   0  0
    0.6415   -3.3606    0.0000 H   0  0
    1.5747   -3.1694    0.0000 H   0  0
  1  2  1  0
  1 33  1  0
  1 34  1  0
  2  3  2  0
  2  4  1  0
  4  5  1  0
  5  6  2  0
  6  7  1  0
  6 23  1  0
  7  8  1  0
  7 32  1  0
  8  4  2  0
  8  9  1  0
  9 10  2  0
 10 11  1  0
 11 12  2  0
 11 19  1  0
 12 13  1  0
 13 14  2  0
 14  9  1  0
 14 15  1  0
 15 16  1  0
 15 17  1  0
 15 18  1  0
 19 20  1  0
 19 21  1  0
 19 22  1  0
 23 24  2  0
 24 25  1  0
 25 26  2  0
 26 27  1  0
 27 28  1  0
 27 29  2  0
 28 30  1  0
 28 31  1  0
 29 23  1  0
M  END
> <CMPD_CHEMBLID>
CHEMBL3330127

> <STANDARD_TYPE>
IC50

> <RELATION>
=

> <STANDARD_VALUE>
3070

> <STANDARD_UNITS>
nM

> <Molecular_Weight>
415.29256

$$$$

  SciTegic11272012012D

 28 31  0  0  0  0            999 V2000
   -2.5613   -2.3465    0.0000 N   0  0
   -1.7696   -2.5800    0.0000 C   0  0
   -1.5745   -3.3817    0.0000 C   0  0
   -0.7828   -3.6135    0.0000 C   0  0
   -0.1861   -3.0437    0.0000 C   0  0
   -0.3810   -2.2449    0.0000 C   0  0
   -1.1730   -2.0103    0.0000 C   0  0
    0.1713   -1.6316    0.0000 C   0  0
    0.9918   -1.7178    0.0000 N   0  0
    1.3273   -0.9641    0.0000 N   0  0
    0.7144   -0.4125    0.0000 C   0  0
    0.7144    0.4125    0.0000 N   0  0
    0.0000    0.8250    0.0000 C   0  0
   -0.7144    0.4125    0.0000 N   0  0
   -0.7144   -0.4125    0.0000 C   0  0
   -1.4302   -0.8238    0.0000 N   0  0
   -2.1444   -0.4100    0.0000 C   0  0
   -2.8604   -0.8200    0.0000 C   0  0
   -3.5734   -0.4051    0.0000 C   0  0
   -3.5706    0.4199    0.0000 C   0  0
   -2.8546    0.8299    0.0000 C   0  0
   -2.8524    1.4899    0.0000 Cl  0  0
   -2.1416    0.4150    0.0000 C   0  0
    0.0000   -0.8250    0.0000 C   0  0
   -1.4311   -1.3738    0.0000 H   0  0
    1.2668   -2.1941    0.0000 H   0  0
   -2.6906   -1.8119    0.0000 H   0  0
   -2.9598   -2.7256    0.0000 H   0  0
  1  2  1  0
  1 27  1  0
  1 28  1  0
  2  3  2  0
  3  4  1  0
  4  5  2  0
  5  6  1  0
  6  7  2  0
  6  8  1  0
  7  2  1  0
  8  9  1  0
  9 10  1  0
  9 26  1  0
 10 11  2  0
 11 12  1  0
 12 13  2  0
 13 14  1  0
 14 15  2  0
 15 16  1  0
 15 24  1  0
 16 17  1  0
 16 25  1  0
 17 18  2  0
 18 19  1  0
 19 20  2  0
 20 21  1  0
 21 22  1  0
 21 23  2  0
 23 17  1  0
 24  8  2  0
 24 11  1  0
M  END
> <CMPD_CHEMBLID>
CHEMBL332882

> <STANDARD_TYPE>
IC50

> <RELATION>
=

> <STANDARD_VALUE>
3090

> <STANDARD_UNITS>
nM

> <Molecular_Weight>
336.77832

$$$$

  SciTegic11272012012D

 37 40  0  0  0  0            999 V2000
    0.8551   -1.9811    0.0000 C   0  0
    1.4273   -1.6521    0.0000 N   0  0
    2.1413   -2.0663    0.0000 C   0  0
    2.1401   -2.8918    0.0000 C   0  0
    2.7110   -3.2230    0.0000 Cl  0  0
    1.4285   -0.8267    0.0000 C   0  0
    0.7144   -0.4125    0.0000 C   0  0
    0.7144    0.4125    0.0000 C   0  0
    0.0000    0.8250    0.0000 C   0  0
   -0.7144    0.4125    0.0000 C   0  0
   -0.7144   -0.4125    0.0000 C   0  0
    0.0000   -0.8250    0.0000 C   0  0
   -1.4302    0.8237    0.0000 C   0  0
   -1.4313    1.4837    0.0000 O   0  0
   -2.1444    0.4100    0.0000 N   0  0
   -2.8601    0.8213    0.0000 C   0  0
   -3.5746    0.4088    0.0000 C   0  0
   -4.2892    0.8213    0.0000 C   0  0
   -4.2892    1.6463    0.0000 C   0  0
   -4.8608    1.9762    0.0000 C   0  0
   -3.5747    2.0587    0.0000 C   0  0
   -3.5731    2.8842    0.0000 N   0  0
   -2.8576    3.2960    0.0000 C   0  0
   -2.8547    4.1210    0.0000 N   0  0
   -2.1388    4.5310    0.0000 C   0  0
   -1.4258    4.1161    0.0000 C   0  0
   -1.4286    3.2911    0.0000 C   0  0
   -2.1445    2.8810    0.0000 N   0  0
   -0.7152    2.8759    0.0000 C   0  0
    0.0014    3.2848    0.0000 C   0  0
    0.7138    2.8687    0.0000 C   0  0
    0.7096    2.0437    0.0000 C   0  0
   -0.0069    1.6348    0.0000 N   0  0
   -0.7193    2.0509    0.0000 C   0  0
   -2.8602    1.6463    0.0000 C   0  0
   -4.0489    3.1600    0.0000 H   0  0
   -2.1435   -0.1400    0.0000 H   0  0
  1  2  1  0
  2  3  1  0
  2  6  1  0
  3  4  1  0
  4  5  1  0
  6  7  1  0
  7  8  2  0
  8  9  1  0
  9 10  2  0
 10 11  1  0
 10 13  1  0
 11 12  2  0
 12  7  1  0
 13 14  2  0
 13 15  1  0
 15 16  1  0
 15 37  1  0
 16 17  2  0
 17 18  1  0
 18 19  2  0
 19 20  1  0
 19 21  1  0
 21 22  1  0
 21 35  2  0
 22 23  1  0
 22 36  1  0
 23 24  2  0
 24 25  1  0
 25 26  2  0
 26 27  1  0
 27 28  2  0
 27 29  1  0
 28 23  1  0
 29 30  2  0
 30 31  1  0
 31 32  2  0
 32 33  1  0
 33 34  2  0
 34 29  1  0
 35 16  1  0
M  END
> <CMPD_CHEMBLID>
CHEMBL231633

> <STANDARD_TYPE>
IC50

> <RELATION>
=

> <STANDARD_VALUE>
3110

> <STANDARD_UNITS>
nM

> <Molecular_Weight>
486.99588

$$$$

  SciTegic11272012012D

 28 31  0  0  0  0            999 V2000
    2.0007   -0.4977    0.0000 C   0  0
    1.4285   -0.8267    0.0000 S   0  0
    1.4276   -1.4867    0.0000 O   0  0
    0.7145   -0.4125    0.0000 C   0  0
    0.7145    0.4125    0.0000 C   0  0
    0.0000    0.8250    0.0000 C   0  0
   -0.7145    0.4125    0.0000 C   0  0
   -0.7145   -0.4125    0.0000 C   0  0
    0.0000   -0.8250    0.0000 C   0  0
   -1.4293    0.8252    0.0000 C   0  0
   -2.1721    0.4825    0.0000 N   0  0
   -2.7251    1.0947    0.0000 C   0  0
   -3.5459    1.0071    0.0000 C   0  0
   -3.9343    0.2824    0.0000 C   0  0
   -4.7589    0.2568    0.0000 C   0  0
   -5.1934    0.9582    0.0000 C   0  0
   -5.8531    0.9377    0.0000 F   0  0
   -4.8032    1.6851    0.0000 C   0  0
   -3.9786    1.7106    0.0000 C   0  0
   -2.3137    1.8098    0.0000 C   0  0
   -1.5065    1.6396    0.0000 N   0  0
   -2.6507    2.5634    0.0000 C   0  0
   -3.4600    2.7089    0.0000 C   0  0
   -3.7391    3.4852    0.0000 C   0  0
   -3.2064    4.1151    0.0000 N   0  0
   -2.3944    3.9687    0.0000 C   0  0
   -2.1153    3.1923    0.0000 C   0  0
   -1.0961    2.0058    0.0000 H   0  0
  1  2  1  0
  2  3  2  0
  2  4  1  0
  4  5  2  0
  5  6  1  0
  6  7  2  0
  7  8  1  0
  7 10  1  0
  8  9  2  0
  9  4  1  0
 10 11  2  0
 11 12  1  0
 12 13  1  0
 12 20  2  0
 13 14  2  0
 14 15  1  0
 15 16  2  0
 16 17  1  0
 16 18  1  0
 18 19  2  0
 19 13  1  0
 20 21  1  0
 20 22  1  0
 21 10  1  0
 21 28  1  0
 22 23  2  0
 23 24  1  0
 24 25  2  0
 25 26  1  0
 26 27  2  0
 27 22  1  0
M  END
> <CMPD_CHEMBLID>
CHEMBL10

> <STANDARD_TYPE>
Ki

> <RELATION>
>

> <STANDARD_VALUE>
3162.28

> <STANDARD_UNITS>
nM

> <Molecular_Weight>
377.43464

$$$$

  SciTegic11272012012D

 24 27  0  0  0  0            999 V2000
    3.4183   -3.0386    0.0000 N   0  0
    3.6886   -2.4365    0.0000 C   0  0
    4.0267   -1.6834    0.0000 C   0  0
    3.5439   -1.0138    0.0000 C   0  0
    3.8811   -0.2603    0.0000 C   0  0
    3.4671    0.4451    0.0000 C   0  0
    4.0221    1.0556    0.0000 C   0  0
    4.7742    0.7164    0.0000 C   0  0
    4.6840   -0.1037    0.0000 C   0  0
    2.7242   -1.0988    0.0000 N   0  0
    2.1731   -0.4848    0.0000 C   0  0
    1.4293   -0.8252    0.0000 C   0  0
    1.5039   -1.6398    0.0000 C   0  0
    2.3106   -1.8126    0.0000 N   0  0
    0.7145   -0.4125    0.0000 C   0  0
    0.7145    0.4125    0.0000 N   0  0
    0.0000    0.8250    0.0000 C   0  0
   -0.7145    0.4125    0.0000 N   0  0
   -0.7145   -0.4125    0.0000 C   0  0
   -1.3273   -0.9642    0.0000 N   0  0
   -0.9918   -1.7178    0.0000 C   0  0
   -0.1713   -1.6316    0.0000 C   0  0
    0.0000   -0.8250    0.0000 C   0  0
   -1.8653   -0.8498    0.0000 H   0  0
  1  2  3  0
  2  3  1  0
  3  4  1  0
  4  5  1  0
  4 10  1  0
  5  6  1  0
  6  7  1  0
  7  8  1  0
  8  9  1  0
  9  5  1  0
 10 11  1  0
 11 12  2  0
 12 13  1  0
 12 15  1  0
 13 14  2  0
 14 10  1  0
 15 16  2  0
 16 17  1  0
 17 18  2  0
 18 19  1  0
 19 20  1  0
 20 21  1  0
 20 24  1  0
 21 22  2  0
 22 23  1  0
 23 15  1  0
 23 19  2  0
M  END
> <CMPD_CHEMBLID>
CHEMBL2002099

> <STANDARD_TYPE>
Ki

> <RELATION>
=

> <STANDARD_VALUE>
3162.28

> <STANDARD_UNITS>
nM

> <Molecular_Weight>
306.36502

$$$$

  SciTegic11272012012D

 27 29  0  0  0  0            999 V2000
    7.0946    0.3313    0.0000 C   0  0
    7.2314   -0.3144    0.0000 C   0  0
    7.8591   -0.5186    0.0000 C   0  0
    7.7221    0.1271    0.0000 C   0  0
    6.6191   -0.8658    0.0000 C   0  0
    5.8120   -0.6943    0.0000 O   0  0
    5.4115   -1.4075    0.0000 C   0  0
    4.5907   -1.4955    0.0000 C   0  0
    4.2560   -2.2501    0.0000 S   0  0
    3.4367   -2.3379    0.0000 C   0  0
    3.0242   -3.0524    0.0000 C   0  0
    2.2172   -2.8809    0.0000 N   0  0
    2.1414   -2.0664    0.0000 C   0  0
    1.4273   -1.6522    0.0000 N   0  0
    1.4285   -0.8267    0.0000 C   0  0
    2.0007   -0.4977    0.0000 O   0  0
    0.7145   -0.4125    0.0000 C   0  0
    0.7145    0.4125    0.0000 C   0  0
    0.0000    0.8250    0.0000 C   0  0
   -0.7145    0.4125    0.0000 N   0  0
   -0.7145   -0.4125    0.0000 C   0  0
    0.0000   -0.8250    0.0000 C   0  0
    2.8846   -1.7248    0.0000 S   0  0
    5.9516   -2.0219    0.0000 N   0  0
    6.7053   -1.6863    0.0000 C   0  0
   -1.1908    0.6875    0.0000 H   0  0
    0.9505   -1.9264    0.0000 H   0  0
  1  2  1  0
  2  3  1  0
  2  4  1  0
  2  5  1  0
  5  6  1  0
  6  7  1  0
  7  8  1  0
  7 24  2  0
  8  9  1  0
  9 10  1  0
 10 11  2  0
 11 12  1  0
 12 13  2  0
 13 14  1  0
 13 23  1  0
 14 15  1  0
 14 27  1  0
 15 16  2  0
 15 17  1  0
 17 18  1  0
 18 19  1  0
 19 20  1  0
 20 21  1  0
 20 26  1  0
 21 22  1  0
 22 17  1  0
 23 10  1  0
 24 25  1  0
 25  5  2  0
M  END
> <CMPD_CHEMBLID>
CHEMBL296468

> <STANDARD_TYPE>
Ki

> <RELATION>
>

> <STANDARD_VALUE>
3162.28

> <STANDARD_UNITS>
nM

> <Molecular_Weight>
380.52806

$$$$

  SciTegic11272012012D

 29 31  0  0  0  0            999 V2000
    1.9982   -1.9833    0.0000 C   0  0
    1.4273   -1.6521    0.0000 C   0  0
    1.4285   -0.8267    0.0000 C   0  0
    0.7144   -0.4125    0.0000 C   0  0
    0.7144    0.4125    0.0000 C   0  0
    0.0000    0.8250    0.0000 C   0  0
   -0.7144    0.4125    0.0000 C   0  0
   -1.4290    0.8250    0.0000 N   0  0
   -2.1434    0.4125    0.0000 C   0  0
   -2.1434   -0.4125    0.0000 C   0  0
   -1.4290   -0.8250    0.0000 C   0  0
   -1.4306   -1.6504    0.0000 N   0  0
   -2.1461   -2.0622    0.0000 C   0  0
   -2.7171   -1.7312    0.0000 O   0  0
   -2.1477   -2.8876    0.0000 N   0  0
   -2.8632   -3.2993    0.0000 C   0  0
   -2.8661   -4.1243    0.0000 C   0  0
   -3.5820   -4.5344    0.0000 C   0  0
   -4.2951   -4.1194    0.0000 C   0  0
   -4.2922   -3.2944    0.0000 C   0  0
   -3.5763   -2.8844    0.0000 N   0  0
   -5.0057   -2.8792    0.0000 C   0  0
   -5.5785   -3.2069    0.0000 F   0  0
   -5.0031   -2.2192    0.0000 F   0  0
   -5.5759   -2.5470    0.0000 F   0  0
   -0.7144   -0.4125    0.0000 C   0  0
    0.0000   -0.8250    0.0000 C   0  0
   -1.6719   -3.1634    0.0000 H   0  0
   -0.9548   -1.9263    0.0000 H   0  0
  1  2  1  0
  2  3  1  0
  3  4  1  0
  4  5  2  0
  5  6  1  0
  6  7  2  0
  7  8  1  0
  8  9  2  0
  9 10  1  0
 10 11  2  0
 11 12  1  0
 11 26  1  0
 12 13  1  0
 12 29  1  0
 13 14  2  0
 13 15  1  0
 15 16  1  0
 15 28  1  0
 16 17  2  0
 17 18  1  0
 18 19  2  0
 19 20  1  0
 20 21  2  0
 20 22  1  0
 21 16  1  0
 22 23  1  0
 22 24  1  0
 22 25  1  0
 26  7  1  0
 26 27  2  0
 27  4  1  0
M  END
> <CMPD_CHEMBLID>
CHEMBL1987430

> <STANDARD_TYPE>
Ki

> <RELATION>
>

> <STANDARD_VALUE>
3162.28

> <STANDARD_UNITS>
nM

> <Molecular_Weight>
374.35969

$$$$

  SciTegic11272012012D

 30 32  0  0  0  0            999 V2000
    1.9982   -1.9833    0.0000 F   0  0
    1.4273   -1.6521    0.0000 C   0  0
    0.8551   -1.9812    0.0000 F   0  0
    1.4285   -0.8267    0.0000 O   0  0
    0.7144   -0.4125    0.0000 C   0  0
    0.7144    0.4125    0.0000 C   0  0
    0.0000    0.8250    0.0000 C   0  0
   -0.7144    0.4125    0.0000 C   0  0
   -1.4290    0.8250    0.0000 C   0  0
   -1.4307    1.6504    0.0000 N   0  0
   -2.1461    2.0622    0.0000 C   0  0
   -2.7171    1.7312    0.0000 O   0  0
   -2.1478    2.8876    0.0000 N   0  0
   -2.8632    3.2993    0.0000 C   0  0
   -2.8662    4.1243    0.0000 C   0  0
   -3.5821    4.5344    0.0000 C   0  0
   -4.2951    4.1194    0.0000 C   0  0
   -4.2923    3.2944    0.0000 C   0  0
   -3.5764    2.8844    0.0000 N   0  0
   -5.0057    2.8792    0.0000 C   0  0
   -5.5786    3.2068    0.0000 F   0  0
   -5.0032    2.2192    0.0000 F   0  0
   -5.5760    2.5469    0.0000 F   0  0
   -2.1434    0.4125    0.0000 C   0  0
   -2.1434   -0.4125    0.0000 C   0  0
   -1.4290   -0.8250    0.0000 N   0  0
   -0.7144   -0.4125    0.0000 C   0  0
    0.0000   -0.8250    0.0000 C   0  0
   -1.6720    3.1634    0.0000 H   0  0
   -0.9548    1.9263    0.0000 H   0  0
  1  2  1  0
  2  3  1  0
  2  4  1  0
  4  5  1  0
  5  6  2  0
  6  7  1  0
  7  8  2  0
  8  9  1  0
  9 10  1  0
  9 24  2  0
 10 11  1  0
 10 30  1  0
 11 12  2  0
 11 13  1  0
 13 14  1  0
 13 29  1  0
 14 15  2  0
 15 16  1  0
 16 17  2  0
 17 18  1  0
 18 19  2  0
 18 20  1  0
 19 14  1  0
 20 21  1  0
 20 22  1  0
 20 23  1  0
 24 25  1  0
 25 26  2  0
 26 27  1  0
 27  8  1  0
 27 28  2  0
 28  5  1  0
M  END
> <CMPD_CHEMBLID>
CHEMBL1981215

> <STANDARD_TYPE>
Ki

> <RELATION>
>

> <STANDARD_VALUE>
3162.28

> <STANDARD_UNITS>
nM

> <Molecular_Weight>
398.28686

$$$$

  SciTegic11272012012D

 35 38  0  0  0  0            999 V2000
    1.2861   -0.7425    0.0000 C   0  0
    0.7144   -0.4125    0.0000 N   0  0
    0.7144    0.4125    0.0000 C   0  0
    0.0000    0.8250    0.0000 C   0  0
   -0.7144    0.4125    0.0000 C   0  0
   -0.7144   -0.4125    0.0000 C   0  0
    0.0000   -0.8250    0.0000 C   0  0
   -1.4302    0.8237    0.0000 N   0  0
   -2.1444    0.4100    0.0000 C   0  0
   -2.1433   -0.2500    0.0000 O   0  0
   -2.8602    0.8213    0.0000 C   0  0
   -2.8602    1.6463    0.0000 C   0  0
   -3.5747    2.0588    0.0000 N   0  0
   -4.2892    1.6463    0.0000 C   0  0
   -5.0049    2.0575    0.0000 N   0  0
   -5.7192    1.6437    0.0000 C   0  0
   -6.4349    2.0550    0.0000 C   0  0
   -6.4350    2.8800    0.0000 C   0  0
   -7.1495    3.2925    0.0000 C   0  0
   -7.1495    3.9525    0.0000 Cl  0  0
   -7.8639    2.8799    0.0000 C   0  0
   -7.8639    2.0549    0.0000 C   0  0
   -7.1494    1.6425    0.0000 C   0  0
   -7.1493    0.9825    0.0000 Cl  0  0
   -4.2892    0.8213    0.0000 N   0  0
   -3.5747    0.4088    0.0000 C   0  0
   -3.5764   -0.4167    0.0000 N   0  0
   -4.2918   -0.8284    0.0000 C   0  0
   -4.3705   -1.6426    0.0000 C   0  0
   -5.1781   -1.8113    0.0000 C   0  0
   -5.5880   -1.0954    0.0000 C   0  0
   -5.0339   -0.4842    0.0000 C   0  0
   -3.1006   -0.6925    0.0000 H   0  0
   -5.0059    2.6075    0.0000 H   0  0
   -1.4312    1.3737    0.0000 H   0  0
  1  2  1  0
  2  3  1  0
  3  4  1  0
  4  5  1  0
  5  6  1  0
  5  8  1  0
  6  7  1  0
  7  2  1  0
  8  9  1  0
  8 35  1  0
  9 10  2  0
  9 11  1  0
 11 12  2  0
 12 13  1  0
 13 14  2  0
 14 15  1  0
 14 25  1  0
 15 16  1  0
 15 34  1  0
 16 17  1  0
 17 18  2  0
 18 19  1  0
 19 20  1  0
 19 21  2  0
 21 22  1  0
 22 23  2  0
 23 17  1  0
 23 24  1  0
 25 26  2  0
 26 11  1  0
 26 27  1  0
 27 28  1  0
 27 33  1  0
 28 29  1  0
 29 30  1  0
 30 31  1  0
 31 32  1  0
 32 28  1  0
M  END
> <CMPD_CHEMBLID>
CHEMBL2312646

> <STANDARD_TYPE>
IC50

> <RELATION>
=

> <STANDARD_VALUE>
3170

> <STANDARD_UNITS>
nM

> <Molecular_Weight>
477.4299

$$$$

  SciTegic11272012012D

 30 33  0  0  0  0            999 V2000
   -0.1742   -2.8725    0.0000 C   0  0
   -0.3790   -2.2450    0.0000 C   0  0
   -1.0247   -2.1088    0.0000 C   0  0
    0.1713   -1.6316    0.0000 N   0  0
    0.9918   -1.7179    0.0000 N   0  0
    1.3273   -0.9642    0.0000 C   0  0
    2.1348   -0.7925    0.0000 C   0  0
    2.7291   -1.3607    0.0000 C   0  0
    3.5209   -1.1288    0.0000 C   0  0
    3.7159   -0.3272    0.0000 C   0  0
    3.1193    0.2426    0.0000 C   0  0
    2.3275    0.0107    0.0000 C   0  0
    3.3128    1.0450    0.0000 C   0  0
    3.9459    1.2316    0.0000 O   0  0
    2.7150    1.6142    0.0000 N   0  0
    2.9086    2.4167    0.0000 C   0  0
    2.3719    3.0340    0.0000 N   0  0
    2.8051    3.7361    0.0000 C   0  0
    3.6068    3.5410    0.0000 C   0  0
    3.6689    2.7184    0.0000 S   0  0
    0.7145   -0.4125    0.0000 C   0  0
    0.7145    0.4125    0.0000 C   0  0
    1.4285    0.8267    0.0000 N   0  0
    0.0000    0.8250    0.0000 N   0  0
   -0.7145    0.4125    0.0000 C   0  0
   -0.7145   -0.4125    0.0000 N   0  0
    0.0000   -0.8250    0.0000 C   0  0
    1.4277    1.3767    0.0000 H   0  0
    1.9053    0.5525    0.0000 H   0  0
    2.1875    1.4587    0.0000 H   0  0
  1  2  1  0
  2  3  1  0
  2  4  1  0
  4  5  1  0
  5  6  2  0
  6  7  1  0
  6 21  1  0
  7  8  2  0
  8  9  1  0
  9 10  2  0
 10 11  1  0
 11 12  2  0
 11 13  1  0
 12  7  1  0
 13 14  2  0
 13 15  1  0
 15 16  1  0
 15 30  1  0
 16 17  2  0
 17 18  1  0
 18 19  1  0
 19 20  1  0
 20 16  1  0
 21 22  2  0
 22 23  1  0
 22 24  1  0
 23 28  1  0
 23 29  1  0
 24 25  2  0
 25 26  1  0
 26 27  2  0
 27  4  1  0
 27 21  1  0
M  END
> <CMPD_CHEMBLID>
CHEMBL1242115

> <STANDARD_TYPE>
IC50

> <RELATION>
=

> <STANDARD_VALUE>
3200

> <STANDARD_UNITS>
nM

> <Molecular_Weight>
381.45476

$$$$

  SciTegic11272012012D

 28 31  0  0  0  0            999 V2000
    2.5619   -3.0003    0.0000 C   0  0
    2.2308   -2.4294    0.0000 O   0  0
    1.4053   -2.4306    0.0000 C   0  0
    1.0763   -3.0028    0.0000 O   0  0
    0.9918   -1.7178    0.0000 C   0  0
    1.3273   -0.9642    0.0000 C   0  0
    0.7145   -0.4125    0.0000 C   0  0
    0.7145    0.4125    0.0000 C   0  0
    0.0000    0.8250    0.0000 C   0  0
   -0.0017    1.6505    0.0000 N   0  0
   -0.7172    2.0622    0.0000 C   0  0
   -1.2882    1.7312    0.0000 O   0  0
   -0.7189    2.8876    0.0000 C   0  0
   -1.4334    3.3002    0.0000 C   0  0
   -1.4334    4.1252    0.0000 C   0  0
   -0.7189    4.5377    0.0000 C   0  0
   -0.5476    5.3443    0.0000 N   0  0
    0.2729    5.4305    0.0000 C   0  0
    0.6084    4.6769    0.0000 C   0  0
   -0.0044    4.1252    0.0000 C   0  0
   -0.0044    3.3002    0.0000 C   0  0
   -0.7145    0.4125    0.0000 C   0  0
   -0.7145   -0.4125    0.0000 N   0  0
    0.0000   -0.8250    0.0000 C   0  0
    0.1713   -1.6316    0.0000 N   0  0
   -0.1967   -2.0403    0.0000 H   0  0
   -0.9157    5.7530    0.0000 H   0  0
    0.4741    1.9263    0.0000 H   0  0
  1  2  1  0
  2  3  1  0
  3  4  2  0
  3  5  1  0
  5  6  2  0
  6  7  1  0
  7  8  2  0
  8  9  1  0
  9 10  1  0
  9 22  2  0
 10 11  1  0
 10 28  1  0
 11 12  2  0
 11 13  1  0
 13 14  2  0
 14 15  1  0
 15 16  2  0
 16 17  1  0
 17 18  1  0
 17 27  1  0
 18 19  2  0
 19 20  1  0
 20 16  1  0
 20 21  2  0
 21 13  1  0
 22 23  1  0
 23 24  2  0
 24  7  1  0
 24 25  1  0
 25  5  1  0
 25 26  1  0
M  END
> <CMPD_CHEMBLID>
CHEMBL3347277

> <STANDARD_TYPE>
IC50

> <RELATION>
=

> <STANDARD_VALUE>
3206

> <STANDARD_UNITS>
nM

> <Molecular_Weight>
334.32876

$$$$

  SciTegic11272012012D

 32 35  0  0  0  0            999 V2000
    4.8547   -2.9760    0.0000 C   0  0
    4.2832   -3.3060    0.0000 C   0  0
    4.2831   -4.1310    0.0000 C   0  0
    3.5687   -4.5435    0.0000 C   0  0
    2.8542   -4.1310    0.0000 C   0  0
    2.8542   -3.3060    0.0000 C   0  0
    2.1402   -2.8918    0.0000 N   0  0
    2.1413   -2.0663    0.0000 C   0  0
    2.7135   -1.7373    0.0000 O   0  0
    1.4273   -1.6521    0.0000 C   0  0
    1.4285   -0.8267    0.0000 O   0  0
    0.7144   -0.4125    0.0000 C   0  0
    0.7144    0.4125    0.0000 C   0  0
    0.0000    0.8250    0.0000 C   0  0
    0.0017    1.6504    0.0000 O   0  0
   -0.7144    0.4125    0.0000 C   0  0
   -1.4290    0.8250    0.0000 C   0  0
   -1.4290    1.4850    0.0000 O   0  0
   -2.1434    0.4125    0.0000 C   0  0
   -2.1434   -0.4125    0.0000 C   0  0
   -1.4290   -0.8250    0.0000 O   0  0
   -0.7144   -0.4125    0.0000 C   0  0
    0.0000   -0.8250    0.0000 C   0  0
   -2.8582   -0.8252    0.0000 C   0  0
   -3.5734   -0.4139    0.0000 C   0  0
   -4.2872   -0.8275    0.0000 C   0  0
   -4.2859   -1.6525    0.0000 C   0  0
   -3.5708   -2.0639    0.0000 C   0  0
   -2.8570   -1.6503    0.0000 C   0  0
    3.5687   -2.8935    0.0000 N   0  0
    0.4784    1.9248    0.0000 H   0  0
    1.6634   -3.1660    0.0000 H   0  0
  1  2  1  0
  2  3  2  0
  3  4  1  0
  4  5  2  0
  5  6  1  0
  6  7  1  0
  6 30  2  0
  7  8  1  0
  7 32  1  0
  8  9  2  0
  8 10  1  0
 10 11  1  0
 11 12  1  0
 12 13  2  0
 13 14  1  0
 14 15  1  0
 14 16  2  0
 15 31  1  0
 16 17  1  0
 17 18  2  0
 17 19  1  0
 19 20  2  0
 20 21  1  0
 20 24  1  0
 21 22  1  0
 22 16  1  0
 22 23  2  0
 23 12  1  0
 24 25  2  0
 25 26  1  0
 26 27  2  0
 27 28  1  0
 28 29  2  0
 29 24  1  0
 30  2  1  0
M  END
> <CMPD_CHEMBLID>
CHEMBL2408507

> <STANDARD_TYPE>
IC50

> <RELATION>
=

> <STANDARD_VALUE>
3300

> <STANDARD_UNITS>
nM

> <Molecular_Weight>
402.39942

$$$$

  SciTegic11272012012D

 25 28  0  0  0  0            999 V2000
    1.4285   -0.8267    0.0000 N   0  0
    0.7144   -0.4125    0.0000 C   0  0
    0.7144    0.4125    0.0000 C   0  0
    0.0000    0.8250    0.0000 C   0  0
   -0.7144    0.4125    0.0000 C   0  0
   -0.7144   -0.4125    0.0000 C   0  0
    0.0000   -0.8250    0.0000 C   0  0
   -1.4293   -0.8252    0.0000 N   0  0
   -2.1731   -0.4848    0.0000 C   0  0
   -2.7242   -1.0988    0.0000 C   0  0
   -2.3105   -1.8126    0.0000 N   0  0
   -1.5039   -1.6398    0.0000 C   0  0
    1.4273   -1.6521    0.0000 C   0  0
    2.1403   -2.0672    0.0000 N   0  0
    2.1375   -2.8922    0.0000 C   0  0
    1.4216   -3.3022    0.0000 C   0  0
    0.7086   -2.8872    0.0000 C   0  0
    0.7114   -2.0622    0.0000 N   0  0
   -0.0077   -3.2975    0.0000 C   0  0
   -0.0119   -4.1225    0.0000 C   0  0
   -0.7284   -4.5314    0.0000 C   0  0
   -1.4408   -4.1153    0.0000 C   0  0
   -1.4367   -3.2903    0.0000 N   0  0
   -0.7201   -2.8814    0.0000 C   0  0
    1.9053   -0.5525    0.0000 H   0  0
  1  2  1  0
  1 13  1  0
  1 25  1  0
  2  3  2  0
  3  4  1  0
  4  5  2  0
  5  6  1  0
  6  7  2  0
  6  8  1  0
  7  2  1  0
  8  9  1  0
  9 10  2  0
 10 11  1  0
 11 12  2  0
 12  8  1  0
 13 14  2  0
 14 15  1  0
 15 16  2  0
 16 17  1  0
 17 18  2  0
 17 19  1  0
 18 13  1  0
 19 20  2  0
 20 21  1  0
 21 22  2  0
 22 23  1  0
 23 24  2  0
 24 19  1  0
M  END
> <CMPD_CHEMBLID>
CHEMBL291963

> <STANDARD_TYPE>
IC50

> <RELATION>
=

> <STANDARD_VALUE>
3300

> <STANDARD_UNITS>
nM

> <Molecular_Weight>
314.34396

$$$$

  SciTegic11272012012D

 30 33  0  0  0  0            999 V2000
    0.5229   -3.1659    0.0000 Cl  0  0
   -0.1229   -3.0297    0.0000 C   0  0
   -0.3789   -2.2450    0.0000 C   0  0
    0.1713   -1.6316    0.0000 N   0  0
    0.9918   -1.7178    0.0000 N   0  0
    1.3273   -0.9641    0.0000 C   0  0
    0.7144   -0.4125    0.0000 C   0  0
    0.7144    0.4125    0.0000 C   0  0
    1.4285    0.8267    0.0000 N   0  0
    1.4273    1.6521    0.0000 C   0  0
    2.1413    2.0663    0.0000 C   0  0
    2.8559    1.6539    0.0000 C   0  0
    3.5703    2.0664    0.0000 C   0  0
    4.1419    1.7365    0.0000 Cl  0  0
    3.5703    2.8914    0.0000 C   0  0
    2.8558    3.3039    0.0000 C   0  0
    2.1413    2.8913    0.0000 C   0  0
    1.5698    3.2214    0.0000 Cl  0  0
    0.0000    0.8250    0.0000 N   0  0
   -0.7144    0.4125    0.0000 C   0  0
   -0.7144   -0.4125    0.0000 N   0  0
    0.0000   -0.8250    0.0000 C   0  0
   -0.6741   -3.6442    0.0000 C   0  0
   -0.4193   -4.4289    0.0000 C   0  0
   -0.9714   -5.0419    0.0000 C   0  0
   -1.7784   -4.8702    0.0000 C   0  0
   -2.2201   -5.3606    0.0000 Br  0  0
   -2.0332   -4.0856    0.0000 C   0  0
   -1.4810   -3.4726    0.0000 C   0  0
    1.9053    0.5525    0.0000 H   0  0
  1  2  1  0
  2  3  1  0
  2 23  1  0
  3  4  1  0
  4  5  1  0
  5  6  2  0
  6  7  1  0
  7  8  2  0
  8  9  1  0
  8 19  1  0
  9 10  1  0
  9 30  1  0
 10 11  1  0
 11 12  2  0
 12 13  1  0
 13 14  1  0
 13 15  2  0
 15 16  1  0
 16 17  2  0
 17 11  1  0
 17 18  1  0
 19 20  2  0
 20 21  1  0
 21 22  2  0
 22  4  1  0
 22  7  1  0
 23 24  2  0
 24 25  1  0
 25 26  2  0
 26 27  1  0
 26 28  1  0
 28 29  2  0
 29 23  1  0
M  END
> <CMPD_CHEMBLID>
CHEMBL2397807

> <STANDARD_TYPE>
Ki

> <RELATION>
=

> <STANDARD_VALUE>
3342

> <STANDARD_UNITS>
nM

> <Molecular_Weight>
511.6296

$$$$

  SciTegic11272012012D

 29 32  0  0  0  0            999 V2000
    2.1898   -3.6571    0.0000 C   0  0
    1.7505   -4.1497    0.0000 O   0  0
    0.9422   -3.9824    0.0000 C   0  0
    0.3921   -4.5973    0.0000 C   0  0
   -0.4154   -4.4284    0.0000 C   0  0
   -0.6729   -3.6447    0.0000 C   0  0
   -0.1229   -3.0297    0.0000 C   0  0
   -0.3789   -2.2450    0.0000 N   0  0
    0.1713   -1.6316    0.0000 C   0  0
    0.9918   -1.7178    0.0000 N   0  0
    1.3273   -0.9641    0.0000 N   0  0
    0.7144   -0.4125    0.0000 C   0  0
    0.7144    0.4125    0.0000 N   0  0
    0.0000    0.8250    0.0000 C   0  0
   -0.7144    0.4125    0.0000 N   0  0
   -0.7144   -0.4125    0.0000 C   0  0
   -1.4302   -0.8238    0.0000 N   0  0
   -2.1444   -0.4100    0.0000 C   0  0
   -2.8604   -0.8200    0.0000 C   0  0
   -3.5734   -0.4051    0.0000 C   0  0
   -3.5706    0.4199    0.0000 C   0  0
   -2.8546    0.8299    0.0000 C   0  0
   -2.8524    1.4899    0.0000 Cl  0  0
   -2.1416    0.4150    0.0000 C   0  0
    0.0000   -0.8250    0.0000 C   0  0
    0.6847   -3.1986    0.0000 C   0  0
   -1.4311   -1.3738    0.0000 H   0  0
    1.2668   -2.1941    0.0000 H   0  0
   -0.9171   -2.1315    0.0000 H   0  0
  1  2  1  0
  2  3  1  0
  3  4  2  0
  4  5  1  0
  5  6  2  0
  6  7  1  0
  7  8  1  0
  7 26  2  0
  8  9  1  0
  8 29  1  0
  9 10  1  0
 10 11  1  0
 10 28  1  0
 11 12  2  0
 12 13  1  0
 13 14  2  0
 14 15  1  0
 15 16  2  0
 16 17  1  0
 16 25  1  0
 17 18  1  0
 17 27  1  0
 18 19  2  0
 19 20  1  0
 20 21  2  0
 21 22  1  0
 22 23  1  0
 22 24  2  0
 24 18  1  0
 25  9  2  0
 25 12  1  0
 26  3  1  0
M  END
> <CMPD_CHEMBLID>
CHEMBL120979

> <STANDARD_TYPE>
IC50

> <RELATION>
=

> <STANDARD_VALUE>
3400

> <STANDARD_UNITS>
nM

> <Molecular_Weight>
366.8043

$$$$

  SciTegic11272012012D

 34 37  0  0  0  0            999 V2000
    1.2861   -0.7425    0.0000 C   0  0
    0.7144   -0.4125    0.0000 C   0  0
    0.7144    0.4125    0.0000 C   0  0
    1.4285    0.8267    0.0000 N   0  0
    1.4273    1.6521    0.0000 C   0  0
    2.1403    2.0672    0.0000 C   0  0
    2.8575    1.6584    0.0000 C   0  0
    3.5703    2.0746    0.0000 C   0  0
    4.2874    1.6659    0.0000 C   0  0
    5.0002    2.0822    0.0000 C   0  0
    5.7174    1.6734    0.0000 N   0  0
    6.4305    2.0884    0.0000 C   0  0
    7.1463    1.6784    0.0000 C   0  0
    7.1492    0.8534    0.0000 C   0  0
    6.4362    0.4384    0.0000 C   0  0
    6.4374   -0.3870    0.0000 N   0  0
    5.7204    0.8484    0.0000 C   0  0
    2.1375    2.8922    0.0000 C   0  0
    1.4216    3.3022    0.0000 N   0  0
    0.7086    2.8872    0.0000 C   0  0
    0.7114    2.0622    0.0000 C   0  0
   -0.0020    1.6471    0.0000 C   0  0
   -0.5725    1.3151    0.0000 N   0  0
    0.0000    0.8250    0.0000 C   0  0
   -0.7144    0.4125    0.0000 C   0  0
   -0.7144   -0.4125    0.0000 C   0  0
   -1.3273   -0.9641    0.0000 N   0  0
   -0.9918   -1.7178    0.0000 C   0  0
   -0.1713   -1.6316    0.0000 C   0  0
    0.0000   -0.8250    0.0000 C   0  0
   -1.8653   -0.8497    0.0000 H   0  0
    5.9617   -0.6630    0.0000 H   0  0
    6.9143   -0.6612    0.0000 H   0  0
    1.9052    0.5525    0.0000 H   0  0
  1  2  1  0
  2  3  2  0
  3  4  1  0
  3 24  1  0
  4  5  1  0
  4 34  1  0
  5  6  2  0
  6  7  1  0
  6 18  1  0
  7  8  2  0
  8  9  1  0
  9 10  1  0
 10 11  1  0
 11 12  1  0
 12 13  1  0
 13 14  1  0
 14 15  1  0
 15 16  1  0
 15 17  1  0
 16 32  1  0
 16 33  1  0
 17 11  1  0
 18 19  2  0
 19 20  1  0
 20 21  2  0
 21  5  1  0
 21 22  1  0
 22 23  3  0
 24 25  2  0
 25 26  1  0
 26 27  1  0
 27 28  1  0
 27 31  1  0
 28 29  2  0
 29 30  1  0
 30  2  1  0
 30 26  2  0
M  END
> <CMPD_CHEMBLID>
CHEMBL606245

> <STANDARD_TYPE>
IC50

> <RELATION>
=

> <STANDARD_VALUE>
3400

> <STANDARD_UNITS>
nM

> <Molecular_Weight>
400.51932

$$$$

  SciTegic11272012012D

 27 30  0  0  0  0            999 V2000
    2.9676    1.8658    0.0000 C   0  0
    3.3569    1.3328    0.0000 C   0  0
    4.0131    1.4036    0.0000 C   0  0
    3.6238    1.9364    0.0000 C   0  0
    3.0241    0.5789    0.0000 N   0  0
    2.2176    0.4047    0.0000 N   0  0
    2.1445   -0.4100    0.0000 C   0  0
    1.4302   -0.8238    0.0000 C   0  0
    0.7145   -0.4125    0.0000 C   0  0
    0.7145    0.4125    0.0000 C   0  0
    0.0000    0.8250    0.0000 C   0  0
   -0.7145    0.4125    0.0000 C   0  0
   -0.7145   -0.4125    0.0000 C   0  0
   -1.4290   -0.8250    0.0000 C   0  0
   -1.4290   -1.6500    0.0000 C   0  0
   -0.7145   -2.0625    0.0000 C   0  0
    0.0000   -1.6500    0.0000 C   0  0
    0.0000   -0.8250    0.0000 C   0  0
    2.8886   -0.7488    0.0000 C   0  0
    3.1461   -1.5326    0.0000 C   0  0
    2.5971   -2.1490    0.0000 N   0  0
    3.9537   -1.7015    0.0000 N   0  0
    4.5037   -1.0865    0.0000 C   0  0
    4.2461   -0.3027    0.0000 N   0  0
    3.4386   -0.1339    0.0000 C   0  0
    2.7695   -2.6713    0.0000 H   0  0
    2.0585   -2.0374    0.0000 H   0  0
  1  2  1  0
  2  3  1  0
  2  4  1  0
  2  5  1  0
  5  6  1  0
  6  7  2  0
  7  8  1  0
  7 19  1  0
  8  9  1  0
  9 10  2  0
 10 11  1  0
 11 12  2  0
 12 13  1  0
 13 14  2  0
 14 15  1  0
 15 16  2  0
 16 17  1  0
 17 18  2  0
 18  9  1  0
 18 13  1  0
 19 20  2  0
 20 21  1  0
 20 22  1  0
 21 26  1  0
 21 27  1  0
 22 23  2  0
 23 24  1  0
 24 25  2  0
 25  5  1  0
 25 19  1  0
M  END
> <CMPD_CHEMBLID>
CHEMBL573578

> <STANDARD_TYPE>
IC50

> <RELATION>
=

> <STANDARD_VALUE>
3400

> <STANDARD_UNITS>
nM

> <Molecular_Weight>
331.41424

$$$$

  SciTegic11272012012D

 24 26  0  0  0  0            999 V2000
   -0.1742   -2.8725    0.0000 C   0  0
   -0.3790   -2.2450    0.0000 C   0  0
   -1.0247   -2.1088    0.0000 C   0  0
    0.1713   -1.6316    0.0000 N   0  0
    0.9918   -1.7179    0.0000 N   0  0
    1.3273   -0.9642    0.0000 C   0  0
    2.1348   -0.7925    0.0000 C   0  0
    2.7291   -1.3607    0.0000 C   0  0
    3.5209   -1.1288    0.0000 C   0  0
    3.7159   -0.3272    0.0000 C   0  0
    4.3494   -0.1417    0.0000 F   0  0
    3.1193    0.2426    0.0000 C   0  0
    2.3275    0.0107    0.0000 C   0  0
    3.3145    1.0446    0.0000 C   0  0
    3.4705    1.6859    0.0000 N   0  0
    0.7145   -0.4125    0.0000 C   0  0
    0.7145    0.4125    0.0000 C   0  0
    1.4285    0.8267    0.0000 N   0  0
    0.0000    0.8250    0.0000 N   0  0
   -0.7145    0.4125    0.0000 C   0  0
   -0.7145   -0.4125    0.0000 N   0  0
    0.0000   -0.8250    0.0000 C   0  0
    1.4277    1.3767    0.0000 H   0  0
    1.9053    0.5525    0.0000 H   0  0
  1  2  1  0
  2  3  1  0
  2  4  1  0
  4  5  1  0
  5  6  2  0
  6  7  1  0
  6 16  1  0
  7  8  2  0
  8  9  1  0
  9 10  2  0
 10 11  1  0
 10 12  1  0
 12 13  2  0
 12 14  1  0
 13  7  1  0
 14 15  3  0
 16 17  2  0
 17 18  1  0
 17 19  1  0
 18 23  1  0
 18 24  1  0
 19 20  2  0
 20 21  1  0
 21 22  2  0
 22  4  1  0
 22 16  1  0
M  END
> <CMPD_CHEMBLID>
CHEMBL1241680

> <STANDARD_TYPE>
IC50

> <RELATION>
=

> <STANDARD_VALUE>
3400

> <STANDARD_UNITS>
nM

> <Molecular_Weight>
296.30232

$$$$

  SciTegic11272012012D

 38 41  0  0  0  0            999 V2000
   -2.8758    6.4310    0.0000 C   0  0
   -2.8726    5.7710    0.0000 C   0  0
   -2.1560    5.3613    0.0000 N   0  0
   -1.4439    5.7788    0.0000 C   0  0
   -1.4478    6.4388    0.0000 C   0  0
   -2.1519    4.5359    0.0000 C   0  0
   -1.4363    4.1254    0.0000 C   0  0
   -1.4339    3.3004    0.0000 C   0  0
   -2.1472    2.8859    0.0000 C   0  0
   -2.1465    2.0605    0.0000 N   0  0
   -2.8608    1.6467    0.0000 C   0  0
   -3.4328    1.9761    0.0000 O   0  0
   -2.8601    0.8213    0.0000 N   0  0
   -3.5744    0.4075    0.0000 C   0  0
   -4.2904    0.8175    0.0000 C   0  0
   -5.0034    0.4025    0.0000 C   0  0
   -5.0005   -0.4225    0.0000 C   0  0
   -5.5710   -0.7544    0.0000 C   0  0
   -4.2846   -0.8325    0.0000 C   0  0
   -4.2801   -1.6579    0.0000 N   0  0
   -3.5632   -2.0672    0.0000 C   0  0
   -3.5575   -2.8922    0.0000 N   0  0
   -2.8402   -3.2997    0.0000 C   0  0
   -2.1285   -2.8823    0.0000 C   0  0
   -2.1343   -2.0573    0.0000 C   0  0
   -2.8516   -1.6497    0.0000 N   0  0
   -1.4223   -1.6397    0.0000 C   0  0
   -0.7043   -2.0460    0.0000 C   0  0
    0.0066   -1.6274    0.0000 C   0  0
   -0.0004   -0.8025    0.0000 C   0  0
   -0.7184   -0.3961    0.0000 N   0  0
   -1.4293   -0.8147    0.0000 C   0  0
   -3.5716   -0.4175    0.0000 C   0  0
   -2.8628    3.2964    0.0000 C   0  0
   -2.8652    4.1213    0.0000 C   0  0
   -4.7549   -1.9354    0.0000 H   0  0
   -2.3835    0.5468    0.0000 H   0  0
   -1.6700    1.7859    0.0000 H   0  0
  1  2  1  0
  2  3  1  0
  3  4  1  0
  3  6  1  0
  4  5  1  0
  6  7  2  0
  7  8  1  0
  8  9  2  0
  9 10  1  0
  9 34  1  0
 10 11  1  0
 10 38  1  0
 11 12  2  0
 11 13  1  0
 13 14  1  0
 13 37  1  0
 14 15  2  0
 15 16  1  0
 16 17  2  0
 17 18  1  0
 17 19  1  0
 19 20  1  0
 19 33  2  0
 20 21  1  0
 20 36  1  0
 21 22  2  0
 22 23  1  0
 23 24  2  0
 24 25  1  0
 25 26  2  0
 25 27  1  0
 26 21  1  0
 27 28  2  0
 28 29  1  0
 29 30  2  0
 30 31  1  0
 31 32  2  0
 32 27  1  0
 33 14  1  0
 34 35  2  0
 35  6  1  0
M  END
> <CMPD_CHEMBLID>
CHEMBL185901

> <STANDARD_TYPE>
IC50

> <RELATION>
>

> <STANDARD_VALUE>
3400

> <STANDARD_UNITS>
nM

> <Molecular_Weight>
467.56546

$$$$

  SciTegic11272012012D

 23 25  0  0  0  0            999 V2000
    1.2861   -0.7425    0.0000 Cl  0  0
    0.7144   -0.4125    0.0000 C   0  0
    0.7144    0.4125    0.0000 C   0  0
    0.0000    0.8250    0.0000 C   0  0
   -0.7144    0.4125    0.0000 C   0  0
   -1.4285    0.8267    0.0000 C   0  0
   -1.4273    1.6521    0.0000 C   0  0
   -2.0931    2.1273    0.0000 C   0  0
   -1.8355    2.9111    0.0000 N   0  0
   -1.0105    2.9082    0.0000 C   0  0
   -0.5224    3.5722    0.0000 N   0  0
    0.2981    3.4819    0.0000 C   0  0
    0.5634    2.8775    0.0000 O   0  0
    0.7870    4.1470    0.0000 C   0  0
    1.6049    4.1344    0.0000 C   0  0
    1.8626    4.9182    0.0000 C   0  0
    1.1968    5.4054    0.0000 C   0  0
    0.5277    4.9228    0.0000 S   0  0
   -0.7582    2.1227    0.0000 S   0  0
   -0.7144   -0.4125    0.0000 C   0  0
   -1.2861   -0.7425    0.0000 Cl  0  0
    0.0000   -0.8250    0.0000 C   0  0
   -0.7435    4.0758    0.0000 H   0  0
  1  2  1  0
  2  3  2  0
  3  4  1  0
  4  5  2  0
  5  6  1  0
  5 20  1  0
  6  7  1  0
  7  8  2  0
  8  9  1  0
  9 10  2  0
 10 11  1  0
 10 19  1  0
 11 12  1  0
 11 23  1  0
 12 13  2  0
 12 14  1  0
 14 15  2  0
 15 16  1  0
 16 17  2  0
 17 18  1  0
 18 14  1  0
 19  7  1  0
 20 21  1  0
 20 22  2  0
 22  2  1  0
M  END
> <CMPD_CHEMBLID>
CHEMBL476303

> <STANDARD_TYPE>
Ki

> <RELATION>
=

> <STANDARD_VALUE>
3474

> <STANDARD_UNITS>
nM

> <Molecular_Weight>
369.2887

$$$$

  SciTegic11272012012D

 30 33  0  0  0  0            999 V2000
   -3.0432   -3.2841    0.0000 C   0  0
   -2.8402   -3.9121    0.0000 O   0  0
   -2.0332   -4.0855    0.0000 C   0  0
   -1.7784   -4.8702    0.0000 C   0  0
   -0.9714   -5.0419    0.0000 C   0  0
   -0.4193   -4.4288    0.0000 C   0  0
   -0.6741   -3.6442    0.0000 C   0  0
   -0.1229   -3.0297    0.0000 C   0  0
   -0.3789   -2.2450    0.0000 N   0  0
    0.1713   -1.6316    0.0000 C   0  0
    0.9918   -1.7178    0.0000 N   0  0
    1.3273   -0.9641    0.0000 N   0  0
    0.7144   -0.4125    0.0000 C   0  0
    0.7144    0.4125    0.0000 N   0  0
    0.0000    0.8250    0.0000 C   0  0
   -0.7144    0.4125    0.0000 N   0  0
   -0.7144   -0.4125    0.0000 C   0  0
   -1.4302   -0.8238    0.0000 N   0  0
   -2.1444   -0.4100    0.0000 C   0  0
   -2.8604   -0.8200    0.0000 C   0  0
   -3.5734   -0.4051    0.0000 C   0  0
   -3.5706    0.4199    0.0000 C   0  0
   -2.8546    0.8299    0.0000 C   0  0
   -2.8524    1.4899    0.0000 Cl  0  0
   -2.1416    0.4150    0.0000 C   0  0
    0.0000   -0.8250    0.0000 C   0  0
   -1.4810   -3.4726    0.0000 C   0  0
   -1.4311   -1.3738    0.0000 H   0  0
    1.2668   -2.1941    0.0000 H   0  0
   -0.9171   -2.1315    0.0000 H   0  0
  1  2  1  0
  2  3  1  0
  3  4  2  0
  4  5  1  0
  5  6  2  0
  6  7  1  0
  7  8  1  0
  7 27  2  0
  8  9  1  0
  9 10  1  0
  9 30  1  0
 10 11  1  0
 11 12  1  0
 11 29  1  0
 12 13  2  0
 13 14  1  0
 14 15  2  0
 15 16  1  0
 16 17  2  0
 17 18  1  0
 17 26  1  0
 18 19  1  0
 18 28  1  0
 19 20  2  0
 20 21  1  0
 21 22  2  0
 22 23  1  0
 23 24  1  0
 23 25  2  0
 25 19  1  0
 26 10  2  0
 26 13  1  0
 27  3  1  0
M  END
> <CMPD_CHEMBLID>
CHEMBL123189

> <STANDARD_TYPE>
IC50

> <RELATION>
=

> <STANDARD_VALUE>
3500

> <STANDARD_UNITS>
nM

> <Molecular_Weight>
380.83088

$$$$

  SciTegic11272012012D

 28 31  0  0  0  0            999 V2000
   -2.1727   -3.9505    0.0000 N   0  0
   -1.5745   -3.3817    0.0000 C   0  0
   -0.7828   -3.6135    0.0000 C   0  0
   -0.1861   -3.0437    0.0000 C   0  0
   -0.3810   -2.2449    0.0000 C   0  0
   -1.1730   -2.0103    0.0000 C   0  0
   -1.7696   -2.5800    0.0000 C   0  0
    0.1713   -1.6316    0.0000 C   0  0
    0.9918   -1.7178    0.0000 N   0  0
    1.3273   -0.9641    0.0000 N   0  0
    0.7144   -0.4125    0.0000 C   0  0
    0.7144    0.4125    0.0000 N   0  0
    0.0000    0.8250    0.0000 C   0  0
   -0.7144    0.4125    0.0000 N   0  0
   -0.7144   -0.4125    0.0000 C   0  0
   -1.4302   -0.8238    0.0000 N   0  0
   -2.1444   -0.4100    0.0000 C   0  0
   -2.8604   -0.8200    0.0000 C   0  0
   -3.5734   -0.4051    0.0000 C   0  0
   -3.5706    0.4199    0.0000 C   0  0
   -2.8546    0.8299    0.0000 C   0  0
   -2.8524    1.4899    0.0000 Cl  0  0
   -2.1416    0.4150    0.0000 C   0  0
    0.0000   -0.8250    0.0000 C   0  0
   -1.4311   -1.3738    0.0000 H   0  0
    1.2668   -2.1941    0.0000 H   0  0
   -2.7003   -3.7951    0.0000 H   0  0
   -2.0436   -4.4851    0.0000 H   0  0
  1  2  1  0
  1 27  1  0
  1 28  1  0
  2  3  2  0
  3  4  1  0
  4  5  2  0
  5  6  1  0
  5  8  1  0
  6  7  2  0
  7  2  1  0
  8  9  1  0
  9 10  1  0
  9 26  1  0
 10 11  2  0
 11 12  1  0
 12 13  2  0
 13 14  1  0
 14 15  2  0
 15 16  1  0
 15 24  1  0
 16 17  1  0
 16 25  1  0
 17 18  2  0
 18 19  1  0
 19 20  2  0
 20 21  1  0
 21 22  1  0
 21 23  2  0
 23 17  1  0
 24  8  2  0
 24 11  1  0
M  END
> <CMPD_CHEMBLID>
CHEMBL332906

> <STANDARD_TYPE>
IC50

> <RELATION>
=

> <STANDARD_VALUE>
3600

> <STANDARD_UNITS>
nM

> <Molecular_Weight>
336.77832

$$$$

  SciTegic11272012012D

 23 25  0  0  0  0            999 V2000
   -2.8059   -3.7642    0.0000 C   0  0
   -2.1728   -3.9506    0.0000 O   0  0
   -1.5746   -3.3817    0.0000 C   0  0
   -0.7828   -3.6136    0.0000 C   0  0
   -0.1861   -3.0438    0.0000 C   0  0
   -0.3810   -2.2450    0.0000 C   0  0
   -1.1730   -2.0103    0.0000 C   0  0
   -1.7697   -2.5801    0.0000 C   0  0
    0.1713   -1.6316    0.0000 C   0  0
    0.9918   -1.7179    0.0000 N   0  0
    1.3273   -0.9642    0.0000 N   0  0
    2.1337   -0.7943    0.0000 C   0  0
    2.5748   -1.2854    0.0000 C   0  0
    2.3387   -0.1669    0.0000 C   0  0
    0.7145   -0.4125    0.0000 C   0  0
    0.7145    0.4125    0.0000 N   0  0
    0.0000    0.8250    0.0000 C   0  0
   -0.7145    0.4125    0.0000 N   0  0
   -0.7145   -0.4125    0.0000 C   0  0
   -1.4302   -0.8238    0.0000 N   0  0
    0.0000   -0.8250    0.0000 C   0  0
   -1.9062   -0.5481    0.0000 H   0  0
   -1.4312   -1.3738    0.0000 H   0  0
  1  2  1  0
  2  3  1  0
  3  4  2  0
  4  5  1  0
  5  6  2  0
  6  7  1  0
  6  9  1  0
  7  8  2  0
  8  3  1  0
  9 10  2  0
 10 11  1  0
 11 12  1  0
 11 15  1  0
 12 13  1  0
 12 14  1  0
 15 16  2  0
 16 17  1  0
 17 18  2  0
 18 19  1  0
 19 20  1  0
 19 21  2  0
 20 22  1  0
 20 23  1  0
 21  9  1  0
 21 15  1  0
M  END
> <CMPD_CHEMBLID>
CHEMBL1242847

> <STANDARD_TYPE>
IC50

> <RELATION>
=

> <STANDARD_VALUE>
3600

> <STANDARD_UNITS>
nM

> <Molecular_Weight>
283.32838

$$$$

  SciTegic11272012012D

 25 28  0  0  0  0            999 V2000
    2.8524    1.4900    0.0000 Cl  0  0
    2.8546    0.8300    0.0000 C   0  0
    3.5706    0.4200    0.0000 C   0  0
    3.5734   -0.4050    0.0000 C   0  0
    2.8604   -0.8200    0.0000 C   0  0
    2.1444   -0.4100    0.0000 C   0  0
    1.4302   -0.8237    0.0000 N   0  0
    0.7144   -0.4125    0.0000 C   0  0
    0.7144    0.4125    0.0000 N   0  0
    0.0000    0.8250    0.0000 C   0  0
   -0.7144    0.4125    0.0000 N   0  0
   -0.7144   -0.4125    0.0000 C   0  0
   -1.3273   -0.9641    0.0000 N   0  0
   -0.9918   -1.7178    0.0000 N   0  0
   -0.1713   -1.6316    0.0000 C   0  0
    0.3811   -2.2449    0.0000 C   0  0
    0.1862   -3.0437    0.0000 C   0  0
    0.7828   -3.6135    0.0000 C   0  0
    1.5746   -3.3816    0.0000 C   0  0
    1.7697   -2.5800    0.0000 C   0  0
    1.1730   -2.0103    0.0000 C   0  0
    0.0000   -0.8250    0.0000 C   0  0
    2.1416    0.4150    0.0000 C   0  0
    1.1908    0.6875    0.0000 H   0  0
    1.4311   -1.3737    0.0000 H   0  0
  1  2  1  0
  2  3  2  0
  3  4  1  0
  4  5  2  0
  5  6  1  0
  6  7  1  0
  6 23  2  0
  7  8  1  0
  7 25  1  0
  8  9  1  0
  9 10  1  0
  9 24  1  0
 10 11  2  0
 11 12  1  0
 12 13  2  0
 13 14  1  0
 14 15  2  0
 15 16  1  0
 15 22  1  0
 16 17  2  0
 17 18  1  0
 18 19  2  0
 19 20  1  0
 20 21  2  0
 21 16  1  0
 22  8  2  0
 22 12  1  0
 23  2  1  0
M  END
> <CMPD_CHEMBLID>
CHEMBL119977

> <STANDARD_TYPE>
IC50

> <RELATION>
=

> <STANDARD_VALUE>
3760

> <STANDARD_UNITS>
nM

> <Molecular_Weight>
321.76368

$$$$

  SciTegic11272012012D

 26 29  0  0  0  0            999 V2000
   -2.6489   -4.4075    0.0000 N   0  0
   -2.1716   -3.9517    0.0000 C   0  0
   -1.5745   -3.3817    0.0000 C   0  0
   -0.7828   -3.6135    0.0000 C   0  0
   -0.1861   -3.0437    0.0000 C   0  0
   -0.3810   -2.2449    0.0000 C   0  0
   -1.1730   -2.0103    0.0000 C   0  0
   -1.7696   -2.5800    0.0000 C   0  0
    0.1713   -1.6316    0.0000 C   0  0
    0.9918   -1.7178    0.0000 C   0  0
    1.3273   -0.9641    0.0000 N   0  0
    0.7144   -0.4125    0.0000 C   0  0
    0.7144    0.4125    0.0000 C   0  0
    0.0000    0.8250    0.0000 C   0  0
   -0.7144    0.4125    0.0000 C   0  0
   -1.4302    0.8237    0.0000 N   0  0
   -2.1444    0.4100    0.0000 C   0  0
   -2.8602    0.8213    0.0000 C   0  0
   -3.5747    0.4088    0.0000 C   0  0
   -4.2892    0.8213    0.0000 C   0  0
   -4.2892    1.6463    0.0000 C   0  0
   -3.5747    2.0588    0.0000 C   0  0
   -2.8602    1.6463    0.0000 C   0  0
   -0.7144   -0.4125    0.0000 N   0  0
    0.0000   -0.8250    0.0000 N   0  0
   -1.4312    1.3737    0.0000 H   0  0
  1  2  3  0
  2  3  1  0
  3  4  2  0
  4  5  1  0
  5  6  2  0
  6  7  1  0
  6  9  1  0
  7  8  2  0
  8  3  1  0
  9 10  2  0
 10 11  1  0
 11 12  2  0
 12 13  1  0
 13 14  2  0
 14 15  1  0
 15 16  1  0
 15 24  2  0
 16 17  1  0
 16 26  1  0
 17 18  1  0
 18 19  2  0
 19 20  1  0
 20 21  2  0
 21 22  1  0
 22 23  2  0
 23 18  1  0
 24 25  1  0
 25  9  1  0
 25 12  1  0
M  END
> <CMPD_CHEMBLID>
CHEMBL3582427

> <STANDARD_TYPE>
IC50

> <RELATION>
=

> <STANDARD_VALUE>
3800

> <STANDARD_UNITS>
nM

> <Molecular_Weight>
325.3666

$$$$

  SciTegic11272012012D

 36 39  0  0  0  0            999 V2000
    6.5669   -0.5649    0.0000 O   0  0
    5.7461   -0.6529    0.0000 N   0  0
    5.4115   -1.4075    0.0000 C   0  0
    5.8003   -1.9408    0.0000 O   0  0
    4.5907   -1.4955    0.0000 C   0  0
    4.2560   -2.2501    0.0000 C   0  0
    3.4367   -2.3379    0.0000 C   0  0
    3.0242   -3.0524    0.0000 C   0  0
    2.2172   -2.8808    0.0000 C   0  0
    2.1413   -2.0664    0.0000 C   0  0
    2.8846   -1.7248    0.0000 S   0  0
    1.4273   -1.6522    0.0000 C   0  0
    0.8552   -1.9812    0.0000 O   0  0
    1.4285   -0.8267    0.0000 N   0  0
    0.7145   -0.4125    0.0000 C   0  0
    0.7145    0.4125    0.0000 C   0  0
    0.0000    0.8250    0.0000 C   0  0
   -0.7145    0.4125    0.0000 C   0  0
   -0.7145   -0.4125    0.0000 C   0  0
   -1.4285   -0.8267    0.0000 N   0  0
   -1.4273   -1.6522    0.0000 C   0  0
   -2.0931   -2.1274    0.0000 N   0  0
   -1.8354   -2.9111    0.0000 C   0  0
   -1.0104   -2.9083    0.0000 C   0  0
   -0.7582   -2.1228    0.0000 S   0  0
   -0.5229   -3.5744    0.0000 C   0  0
   -0.7977   -4.3494    0.0000 C   0  0
   -0.2617   -4.9766    0.0000 C   0  0
    0.5494   -4.8260    0.0000 C   0  0
    0.8246   -4.0483    0.0000 N   0  0
    0.2886   -3.4211    0.0000 C   0  0
    0.0000   -0.8250    0.0000 C   0  0
   -1.9053   -0.5525    0.0000 H   0  0
    1.9053   -0.5525    0.0000 H   0  0
    5.4220   -0.2085    0.0000 H   0  0
    6.7899   -0.0622    0.0000 H   0  0
  1  2  1  0
  1 36  1  0
  2  3  1  0
  2 35  1  0
  3  4  2  0
  3  5  1  0
  5  6  2  0
  6  7  1  0
  7  8  2  0
  8  9  1  0
  9 10  2  0
 10 11  1  0
 10 12  1  0
 11  7  1  0
 12 13  2  0
 12 14  1  0
 14 15  1  0
 14 34  1  0
 15 16  2  0
 16 17  1  0
 17 18  2  0
 18 19  1  0
 19 20  1  0
 19 32  2  0
 20 21  1  0
 20 33  1  0
 21 22  2  0
 22 23  1  0
 23 24  2  0
 24 25  1  0
 24 26  1  0
 25 21  1  0
 26 27  2  0
 27 28  1  0
 28 29  2  0
 29 30  1  0
 30 31  2  0
 31 26  1  0
 32 15  1  0
M  END
> <CMPD_CHEMBLID>
CHEMBL523684

> <STANDARD_TYPE>
IC50

> <RELATION>
=

> <STANDARD_VALUE>
3800

> <STANDARD_UNITS>
nM

> <Molecular_Weight>
463.53208

$$$$

  SciTegic11272012012D

 30 33  0  0  0  0            999 V2000
    0.8551   -1.9812    0.0000 O   0  0
    1.4273   -1.6521    0.0000 C   0  0
    1.4285   -0.8267    0.0000 N   0  0
    0.7144   -0.4125    0.0000 C   0  0
    0.7144    0.4125    0.0000 C   0  0
    0.0000    0.8250    0.0000 C   0  0
   -0.7144    0.4125    0.0000 C   0  0
   -0.7144   -0.4125    0.0000 C   0  0
   -1.4285   -0.8267    0.0000 N   0  0
   -1.4273   -1.6521    0.0000 C   0  0
   -2.1403   -2.0672    0.0000 N   0  0
   -2.1375   -2.8922    0.0000 C   0  0
   -1.4216   -3.3022    0.0000 C   0  0
   -0.7086   -2.8872    0.0000 C   0  0
   -0.7114   -2.0622    0.0000 N   0  0
    0.0077   -3.2975    0.0000 C   0  0
    0.0119   -4.1225    0.0000 C   0  0
    0.7285   -4.5314    0.0000 C   0  0
    1.4408   -4.1153    0.0000 C   0  0
    1.4367   -3.2903    0.0000 N   0  0
    0.7201   -2.8814    0.0000 C   0  0
    0.0000   -0.8250    0.0000 C   0  0
    2.1413   -2.0663    0.0000 C   0  0
    2.1414   -2.8913    0.0000 C   0  0
    2.8558   -3.3038    0.0000 C   0  0
    3.5703   -2.8914    0.0000 C   0  0
    3.5703   -2.0664    0.0000 C   0  0
    2.8559   -1.6538    0.0000 N   0  0
   -1.9053   -0.5525    0.0000 H   0  0
    1.9053   -0.5525    0.0000 H   0  0
  1  2  2  0
  2  3  1  0
  2 23  1  0
  3  4  1  0
  3 30  1  0
  4  5  2  0
  5  6  1  0
  6  7  2  0
  7  8  1  0
  8  9  1  0
  8 22  2  0
  9 10  1  0
  9 29  1  0
 10 11  2  0
 11 12  1  0
 12 13  2  0
 13 14  1  0
 14 15  2  0
 14 16  1  0
 15 10  1  0
 16 17  2  0
 17 18  1  0
 18 19  2  0
 19 20  1  0
 20 21  2  0
 21 16  1  0
 22  4  1  0
 23 24  2  0
 24 25  1  0
 25 26  2  0
 26 27  1  0
 27 28  2  0
 28 23  1  0
M  END
> <CMPD_CHEMBLID>
CHEMBL292866

> <STANDARD_TYPE>
IC50

> <RELATION>
=

> <STANDARD_VALUE>
3800

> <STANDARD_UNITS>
nM

> <Molecular_Weight>
368.39134

$$$$

  SciTegic11272012012D

 26 29  0  0  0  0            999 V2000
    2.2541   -3.0993    0.0000 C   0  0
    2.6435   -2.5664    0.0000 C   0  0
    3.2996   -2.6374    0.0000 C   0  0
    2.3108   -1.8125    0.0000 N   0  0
    1.5040   -1.6398    0.0000 N   0  0
    1.4293   -0.8252    0.0000 C   0  0
    0.7145   -0.4125    0.0000 C   0  0
    0.7145    0.4125    0.0000 C   0  0
    0.0000    0.8250    0.0000 C   0  0
   -0.7145    0.4125    0.0000 C   0  0
   -1.4290    0.8250    0.0000 N   0  0
   -2.1435    0.4125    0.0000 C   0  0
   -2.7151    0.7425    0.0000 Cl  0  0
   -2.1435   -0.4125    0.0000 C   0  0
   -1.4290   -0.8250    0.0000 C   0  0
   -0.7145   -0.4125    0.0000 C   0  0
    0.0000   -0.8250    0.0000 C   0  0
    2.1728   -0.4850    0.0000 C   0  0
    2.4289    0.2993    0.0000 C   0  0
    1.8786    0.9146    0.0000 N   0  0
    3.2361    0.4697    0.0000 N   0  0
    3.7873   -0.1443    0.0000 C   0  0
    3.5312   -0.9285    0.0000 N   0  0
    2.7239   -1.0989    0.0000 C   0  0
    2.0501    1.4372    0.0000 H   0  0
    1.3403    0.8020    0.0000 H   0  0
  1  2  1  0
  2  3  1  0
  2  4  1  0
  4  5  1  0
  5  6  2  0
  6  7  1  0
  6 18  1  0
  7  8  2  0
  8  9  1  0
  9 10  2  0
 10 11  1  0
 11 12  2  0
 12 13  1  0
 12 14  1  0
 14 15  2  0
 15 16  1  0
 16 10  1  0
 16 17  2  0
 17  7  1  0
 18 19  2  0
 19 20  1  0
 19 21  1  0
 20 25  1  0
 20 26  1  0
 21 22  2  0
 22 23  1  0
 23 24  2  0
 24  4  1  0
 24 18  1  0
M  END
> <CMPD_CHEMBLID>
CHEMBL1241683

> <STANDARD_TYPE>
IC50

> <RELATION>
=

> <STANDARD_VALUE>
3800

> <STANDARD_UNITS>
nM

> <Molecular_Weight>
338.7942

$$$$

  SciTegic11272012012D

 29 31  0  0  0  0            999 V2000
    2.7158   -1.5679    0.0000 C   0  0
    2.1442   -1.2379    0.0000 C   0  0
    1.4293   -0.8252    0.0000 C   0  0
    0.7144   -0.4125    0.0000 C   0  0
    0.7144    0.4125    0.0000 C   0  0
    0.0000    0.8250    0.0000 C   0  0
   -0.7144    0.4125    0.0000 C   0  0
   -1.4290    0.8250    0.0000 N   0  0
   -2.1434    0.4125    0.0000 C   0  0
   -2.1434   -0.4125    0.0000 C   0  0
   -1.4290   -0.8250    0.0000 C   0  0
   -1.4306   -1.6504    0.0000 N   0  0
   -2.1461   -2.0622    0.0000 C   0  0
   -2.7171   -1.7312    0.0000 O   0  0
   -2.1477   -2.8876    0.0000 N   0  0
   -2.8632   -3.2993    0.0000 C   0  0
   -2.8661   -4.1243    0.0000 C   0  0
   -3.5820   -4.5344    0.0000 C   0  0
   -4.2951   -4.1194    0.0000 C   0  0
   -4.2922   -3.2944    0.0000 C   0  0
   -3.5763   -2.8844    0.0000 N   0  0
   -5.0057   -2.8792    0.0000 C   0  0
   -5.5785   -3.2069    0.0000 F   0  0
   -5.0031   -2.2192    0.0000 F   0  0
   -5.5759   -2.5470    0.0000 F   0  0
   -0.7144   -0.4125    0.0000 C   0  0
    0.0000   -0.8250    0.0000 C   0  0
   -1.6719   -3.1634    0.0000 H   0  0
   -0.9548   -1.9263    0.0000 H   0  0
  1  2  1  0
  2  3  3  0
  3  4  1  0
  4  5  2  0
  5  6  1  0
  6  7  2  0
  7  8  1  0
  8  9  2  0
  9 10  1  0
 10 11  2  0
 11 12  1  0
 11 26  1  0
 12 13  1  0
 12 29  1  0
 13 14  2  0
 13 15  1  0
 15 16  1  0
 15 28  1  0
 16 17  2  0
 17 18  1  0
 18 19  2  0
 19 20  1  0
 20 21  2  0
 20 22  1  0
 21 16  1  0
 22 23  1  0
 22 24  1  0
 22 25  1  0
 26  7  1  0
 26 27  2  0
 27  4  1  0
M  END
> <CMPD_CHEMBLID>
CHEMBL2007375

> <STANDARD_TYPE>
Ki

> <RELATION>
>

> <STANDARD_VALUE>
3981.07

> <STANDARD_UNITS>
nM

> <Molecular_Weight>
370.32793

$$$$

  SciTegic11272012012D

 33 36  0  0  0  0            999 V2000
    2.9848   -5.6951    0.0000 C   0  0
    3.5580   -5.3680    0.0000 C   0  0
    4.2704   -5.7841    0.0000 C   0  0
    4.9870   -5.3752    0.0000 C   0  0
    4.9911   -4.5502    0.0000 C   0  0
    5.5644   -4.2231    0.0000 F   0  0
    4.2787   -4.1341    0.0000 C   0  0
    4.2812   -3.3086    0.0000 N   0  0
    3.5679   -2.8933    0.0000 C   0  0
    2.9952   -3.2214    0.0000 O   0  0
    3.5703   -2.0678    0.0000 N   0  0
    2.8570   -1.6525    0.0000 C   0  0
    2.8583   -0.8275    0.0000 C   0  0
    2.1445   -0.4139    0.0000 C   0  0
    1.4293   -0.8252    0.0000 C   0  0
    1.4281   -1.6502    0.0000 C   0  0
    2.1419   -2.0639    0.0000 C   0  0
    0.7145   -0.4125    0.0000 C   0  0
    0.7145    0.4125    0.0000 C   0  0
    0.0000    0.8250    0.0000 C   0  0
   -0.7145    0.4125    0.0000 C   0  0
   -0.7145   -0.4125    0.0000 C   0  0
   -1.3273   -0.9642    0.0000 N   0  0
   -0.9918   -1.7178    0.0000 N   0  0
   -0.1713   -1.6316    0.0000 C   0  0
    0.3790   -2.2450    0.0000 N   0  0
    0.0000   -0.8250    0.0000 C   0  0
    3.5622   -4.5430    0.0000 C   0  0
    0.2083   -2.7679    0.0000 H   0  0
    0.9171   -2.1315    0.0000 H   0  0
   -1.8653   -0.8498    0.0000 H   0  0
    4.0476   -1.7944    0.0000 H   0  0
    4.7584   -3.0352    0.0000 H   0  0
  1  2  1  0
  2  3  2  0
  3  4  1  0
  4  5  2  0
  5  6  1  0
  5  7  1  0
  7  8  1  0
  7 28  2  0
  8  9  1  0
  8 33  1  0
  9 10  2  0
  9 11  1  0
 11 12  1  0
 11 32  1  0
 12 13  2  0
 13 14  1  0
 14 15  2  0
 15 16  1  0
 15 18  1  0
 16 17  2  0
 17 12  1  0
 18 19  2  0
 19 20  1  0
 20 21  2  0
 21 22  1  0
 22 23  1  0
 23 24  1  0
 23 31  1  0
 24 25  2  0
 25 26  1  0
 25 27  1  0
 26 29  1  0
 26 30  1  0
 27 18  1  0
 27 22  2  0
 28  2  1  0
M  END
> <CMPD_CHEMBLID>
CHEMBL223360

> <STANDARD_TYPE>
Ki

> <RELATION>
>

> <STANDARD_VALUE>
3981.07

> <STANDARD_UNITS>
nM

> <Molecular_Weight>
375.39892

$$$$

  SciTegic11272012012D

 41 45  0  0  0  0            999 V2000
    5.1429   -3.7677    0.0000 C   0  0
    4.9564   -3.1346    0.0000 C   0  0
    4.1545   -2.9408    0.0000 C   0  0
    3.9214   -2.1494    0.0000 C   0  0
    4.4885   -1.5543    0.0000 C   0  0
    5.2921   -1.7457    0.0000 C   0  0
    5.5252   -2.5371    0.0000 C   0  0
    4.3189   -0.7465    0.0000 N   0  0
    4.8688   -0.1315    0.0000 N   0  0
    4.4538    0.5816    0.0000 C   0  0
    3.6475    0.4072    0.0000 C   0  0
    3.5745   -0.4075    0.0000 C   0  0
    2.8602   -0.8213    0.0000 N   0  0
    2.1445   -0.4100    0.0000 C   0  0
    2.1433    0.2500    0.0000 O   0  0
    1.4302   -0.8237    0.0000 N   0  0
    0.7145   -0.4125    0.0000 C   0  0
    0.7145    0.4125    0.0000 C   0  0
    0.0000    0.8250    0.0000 C   0  0
   -0.7145    0.4125    0.0000 C   0  0
   -1.4285    0.8267    0.0000 O   0  0
   -1.4273    1.6522    0.0000 C   0  0
   -2.1413    2.0664    0.0000 C   0  0
   -2.1402    2.8918    0.0000 N   0  0
   -2.8532    3.3068    0.0000 C   0  0
   -2.8503    4.1318    0.0000 C   0  0
   -2.1345    4.5419    0.0000 O   0  0
   -1.4214    4.1269    0.0000 C   0  0
   -1.4243    3.3019    0.0000 C   0  0
   -0.7145   -0.4125    0.0000 C   0  0
   -1.4290   -0.8250    0.0000 C   0  0
   -1.4290   -1.6500    0.0000 C   0  0
   -0.7145   -2.0625    0.0000 C   0  0
    0.0000   -1.6500    0.0000 C   0  0
    0.0000   -0.8250    0.0000 C   0  0
    4.7864    1.3355    0.0000 C   0  0
    5.4425    1.4072    0.0000 C   0  0
    4.3964    1.8680    0.0000 C   0  0
    5.0524    1.9395    0.0000 C   0  0
    1.4312   -1.3737    0.0000 H   0  0
    2.8612   -1.3713    0.0000 H   0  0
  1  2  1  0
  2  3  2  0
  3  4  1  0
  4  5  2  0
  5  6  1  0
  5  8  1  0
  6  7  2  0
  7  2  1  0
  8  9  1  0
  9 10  2  0
 10 11  1  0
 10 36  1  0
 11 12  2  0
 12  8  1  0
 12 13  1  0
 13 14  1  0
 13 41  1  0
 14 15  2  0
 14 16  1  0
 16 17  1  0
 16 40  1  0
 17 18  2  0
 18 19  1  0
 19 20  2  0
 20 21  1  0
 20 30  1  0
 21 22  1  0
 22 23  1  0
 23 24  1  0
 24 25  1  0
 25 26  1  0
 26 27  1  0
 27 28  1  0
 28 29  1  0
 29 24  1  0
 30 31  2  0
 31 32  1  0
 32 33  2  0
 33 34  1  0
 34 35  2  0
 35 17  1  0
 35 30  1  0
 36 37  1  0
 36 38  1  0
 36 39  1  0
M  END
> <CMPD_CHEMBLID>
CHEMBL103667

> <STANDARD_TYPE>
Ki

> <RELATION>
>

> <STANDARD_VALUE>
3981.07

> <STANDARD_UNITS>
nM

> <Molecular_Weight>
527.65718

$$$$

  SciTegic11272012012D

 24 26  0  0  0  0            999 V2000
    2.8627   -1.4800    0.0000 C   0  0
    2.8604   -0.8200    0.0000 C   0  0
    3.5734   -0.4050    0.0000 C   0  0
    3.5706    0.4200    0.0000 C   0  0
    2.8546    0.8300    0.0000 N   0  0
    2.1416    0.4150    0.0000 C   0  0
    2.1444   -0.4100    0.0000 C   0  0
    1.4302   -0.8237    0.0000 N   0  0
    1.4313   -1.4837    0.0000 C   0  0
    0.7144   -0.4125    0.0000 C   0  0
    0.7144    0.4125    0.0000 N   0  0
    0.0000    0.8250    0.0000 C   0  0
   -0.7144    0.4125    0.0000 N   0  0
   -0.7144   -0.4125    0.0000 C   0  0
   -1.3273   -0.9641    0.0000 N   0  0
   -0.9918   -1.7178    0.0000 C   0  0
   -0.1713   -1.6316    0.0000 C   0  0
    0.0000   -0.8250    0.0000 C   0  0
    2.8501    1.6554    0.0000 C   0  0
    3.4200    1.9884    0.0000 O   0  0
    2.1333    2.0646    0.0000 C   0  0
    2.1287    2.8901    0.0000 C   0  0
    2.1251    3.5501    0.0000 N   0  0
   -1.8653   -0.8497    0.0000 H   0  0
  1  2  1  0
  2  3  1  0
  3  4  1  0
  4  5  1  0
  5  6  1  0
  5 19  1  0
  6  7  1  0
  7  2  1  0
  7  8  1  0
  8  9  1  0
  8 10  1  0
 10 11  2  0
 11 12  1  0
 12 13  2  0
 13 14  1  0
 14 15  1  0
 15 16  1  0
 15 24  1  0
 16 17  2  0
 17 18  1  0
 18 10  1  0
 18 14  2  0
 19 20  2  0
 19 21  1  0
 21 22  1  0
 22 23  3  0
M  END
> <CMPD_CHEMBLID>
CHEMBL234085

> <STANDARD_TYPE>
Ki

> <RELATION>
>

> <STANDARD_VALUE>
3981.07

> <STANDARD_UNITS>
nM

> <Molecular_Weight>
312.3696

$$$$

  SciTegic11272012012D

 29 32  0  0  0  0            999 V2000
    2.0013   -0.4930    0.0000 C   0  0
    1.4302   -0.8238    0.0000 O   0  0
    0.7145   -0.4125    0.0000 C   0  0
    0.7145    0.4125    0.0000 C   0  0
    0.0000    0.8250    0.0000 C   0  0
    0.0000    1.6500    0.0000 N   0  0
   -0.7145    2.0625    0.0000 C   0  0
   -1.4290    1.6500    0.0000 C   0  0
   -2.1435    2.0625    0.0000 C   0  0
   -2.1452    2.8880    0.0000 N   0  0
   -2.8580    1.6500    0.0000 N   0  0
   -2.8580    0.8250    0.0000 C   0  0
   -3.5724    0.4125    0.0000 C   0  0
   -4.1440    0.7425    0.0000 C   0  0
   -3.5724   -0.4125    0.0000 C   0  0
   -4.2865   -0.8268    0.0000 N   0  0
   -2.8579   -0.8250    0.0000 C   0  0
   -2.1435   -0.4125    0.0000 C   0  0
   -2.1435    0.4125    0.0000 C   0  0
   -1.4290    0.8250    0.0000 C   0  0
   -0.7145    0.4125    0.0000 C   0  0
   -0.7145   -0.4125    0.0000 C   0  0
    0.0000   -0.8250    0.0000 C   0  0
   -0.0017   -1.6505    0.0000 O   0  0
   -0.5738   -1.9797    0.0000 C   0  0
   -4.2857   -1.3768    0.0000 H   0  0
   -4.7633   -0.5526    0.0000 H   0  0
   -2.6219    3.1623    0.0000 H   0  0
   -1.6693    3.1638    0.0000 H   0  0
  1  2  1  0
  2  3  1  0
  3  4  2  0
  4  5  1  0
  5  6  2  0
  6  7  1  0
  7  8  2  0
  8  9  1  0
  9 10  1  0
  9 11  2  0
 10 28  1  0
 10 29  1  0
 11 12  1  0
 12 13  2  0
 13 14  1  0
 13 15  1  0
 15 16  1  0
 15 17  2  0
 16 26  1  0
 16 27  1  0
 17 18  1  0
 18 19  2  0
 19 12  1  0
 19 20  1  0
 20  8  1  0
 20 21  2  0
 21  5  1  0
 21 22  1  0
 22 23  2  0
 23  3  1  0
 23 24  1  0
 24 25  1  0
M  END
> <CMPD_CHEMBLID>
CHEMBL235157

> <STANDARD_TYPE>
Ki

> <RELATION>
>

> <STANDARD_VALUE>
3981.07

> <STANDARD_UNITS>
nM

> <Molecular_Weight>
334.37182

$$$$

  SciTegic11272012012D

 28 31  0  0  0  0            999 V2000
   -2.8513    1.3170    0.0000 C   0  0
   -3.3308    0.8636    0.0000 N   0  0
   -3.9632    1.0524    0.0000 C   0  0
   -3.1401    0.0605    0.0000 C   0  0
   -3.7387   -0.5072    0.0000 C   0  0
   -3.5463   -1.3095    0.0000 C   0  0
   -2.7554   -1.5441    0.0000 C   0  0
   -2.1568   -0.9764    0.0000 C   0  0
   -2.3491   -0.1741    0.0000 C   0  0
   -2.5614   -2.3465    0.0000 N   0  0
   -1.7696   -2.5800    0.0000 C   0  0
   -1.5745   -3.3817    0.0000 N   0  0
   -0.7828   -3.6135    0.0000 C   0  0
   -0.6267   -4.2548    0.0000 Cl  0  0
   -0.1861   -3.0438    0.0000 C   0  0
   -0.3810   -2.2449    0.0000 C   0  0
   -1.1730   -2.0103    0.0000 N   0  0
    0.1713   -1.6316    0.0000 C   0  0
    0.9918   -1.7178    0.0000 C   0  0
    1.3273   -0.9641    0.0000 N   0  0
    0.7144   -0.4125    0.0000 C   0  0
    0.7144    0.4125    0.0000 N   0  0
    0.0000    0.8250    0.0000 C   0  0
   -0.7144    0.4125    0.0000 C   0  0
   -0.7144   -0.4125    0.0000 C   0  0
    0.0000   -0.8250    0.0000 C   0  0
    1.8653   -0.8497    0.0000 H   0  0
   -2.9598   -2.7256    0.0000 H   0  0
  1  2  1  0
  2  3  1  0
  2  4  1  0
  4  5  1  0
  5  6  1  0
  6  7  1  0
  7  8  1  0
  7 10  1  0
  8  9  1  0
  9  4  1  0
 10 11  1  0
 10 28  1  0
 11 12  2  0
 12 13  1  0
 13 14  1  0
 13 15  2  0
 15 16  1  0
 16 17  2  0
 16 18  1  0
 17 11  1  0
 18 19  2  0
 19 20  1  0
 20 21  1  0
 20 27  1  0
 21 22  2  0
 22 23  1  0
 23 24  2  0
 24 25  1  0
 25 26  2  0
 26 18  1  0
 26 21  1  0
M  END
> <CMPD_CHEMBLID>
CHEMBL1969151

> <STANDARD_TYPE>
Ki

> <RELATION>
>

> <STANDARD_VALUE>
3981.07

> <STANDARD_UNITS>
nM

> <Molecular_Weight>
370.87912

$$$$

  SciTegic11272012012D

 42 45  0  0  0  0            999 V2000
    8.5773   -3.2668    0.0000 C   0  0
    7.9353   -3.1138    0.0000 C   0  0
    7.4819   -3.5935    0.0000 C   0  0
    7.6990   -2.3228    0.0000 C   0  0
    8.2673   -1.7242    0.0000 C   0  0
    9.0700   -1.9164    0.0000 O   0  0
    6.8963   -2.1306    0.0000 N   0  0
    6.3280   -2.7294    0.0000 C   0  0
    6.5156   -3.3621    0.0000 O   0  0
    5.5253   -2.5371    0.0000 C   0  0
    4.9564   -3.1346    0.0000 C   0  0
    4.1545   -2.9408    0.0000 C   0  0
    3.9214   -2.1494    0.0000 C   0  0
    4.4885   -1.5543    0.0000 C   0  0
    5.2921   -1.7457    0.0000 C   0  0
    4.3189   -0.7465    0.0000 N   0  0
    4.8688   -0.1315    0.0000 N   0  0
    4.4538    0.5816    0.0000 C   0  0
    3.6475    0.4072    0.0000 C   0  0
    3.5745   -0.4075    0.0000 C   0  0
    2.8602   -0.8213    0.0000 N   0  0
    2.1445   -0.4100    0.0000 C   0  0
    2.1433    0.2500    0.0000 O   0  0
    1.4302   -0.8237    0.0000 N   0  0
    0.7145   -0.4125    0.0000 C   0  0
    0.7145    0.4125    0.0000 C   0  0
    0.0000    0.8250    0.0000 C   0  0
   -0.7145    0.4125    0.0000 C   0  0
   -0.7145   -0.4125    0.0000 C   0  0
   -1.4290   -0.8250    0.0000 C   0  0
   -1.4290   -1.6500    0.0000 C   0  0
   -0.7145   -2.0625    0.0000 C   0  0
    0.0000   -1.6500    0.0000 C   0  0
    0.0000   -0.8250    0.0000 C   0  0
    4.7864    1.3355    0.0000 C   0  0
    5.4425    1.4072    0.0000 C   0  0
    4.3964    1.8680    0.0000 C   0  0
    5.0525    1.9395    0.0000 C   0  0
    1.4312   -1.3738    0.0000 H   0  0
    2.8612   -1.3713    0.0000 H   0  0
    6.7399   -1.6033    0.0000 H   0  0
    9.4487   -1.5175    0.0000 H   0  0
  1  2  1  0
  2  3  1  0
  2  4  1  0
  4  5  1  0
  4  7  1  0
  5  6  1  0
  6 42  1  0
  7  8  1  0
  7 41  1  0
  8  9  2  0
  8 10  1  0
 10 11  2  0
 11 12  1  0
 12 13  2  0
 13 14  1  0
 14 15  2  0
 14 16  1  0
 15 10  1  0
 16 17  1  0
 17 18  2  0
 18 19  1  0
 18 35  1  0
 19 20  2  0
 20 16  1  0
 20 21  1  0
 21 22  1  0
 21 40  1  0
 22 23  2  0
 22 24  1  0
 24 25  1  0
 24 39  1  0
 25 26  2  0
 26 27  1  0
 27 28  2  0
 28 29  1  0
 29 30  2  0
 30 31  1  0
 31 32  2  0
 32 33  1  0
 33 34  2  0
 34 25  1  0
 34 29  1  0
 35 36  1  0
 35 37  1  0
 35 38  1  0
M  END
> <CMPD_CHEMBLID>
CHEMBL1971223

> <STANDARD_TYPE>
Ki

> <RELATION>
>

> <STANDARD_VALUE>
3981.07

> <STANDARD_UNITS>
nM

> <Molecular_Weight>
513.6306

$$$$

  SciTegic11272012012D

 39 42  0  0  0  0            999 V2000
    6.7086   -1.4978    0.0000 C   0  0
    6.8962   -2.1306    0.0000 N   0  0
    7.6990   -2.3228    0.0000 C   0  0
    8.2673   -1.7241    0.0000 C   0  0
    9.0700   -1.9164    0.0000 C   0  0
    9.7118   -2.0701    0.0000 N   0  0
    6.3280   -2.7293    0.0000 C   0  0
    6.5156   -3.3621    0.0000 O   0  0
    5.5252   -2.5371    0.0000 C   0  0
    4.9564   -3.1346    0.0000 C   0  0
    4.1545   -2.9408    0.0000 C   0  0
    3.9214   -2.1494    0.0000 C   0  0
    4.4885   -1.5543    0.0000 C   0  0
    5.2921   -1.7457    0.0000 C   0  0
    4.3189   -0.7465    0.0000 N   0  0
    4.8688   -0.1315    0.0000 N   0  0
    4.4538    0.5816    0.0000 C   0  0
    3.6475    0.4072    0.0000 C   0  0
    3.5745   -0.4075    0.0000 C   0  0
    2.8602   -0.8213    0.0000 N   0  0
    2.1445   -0.4100    0.0000 C   0  0
    2.1433    0.2500    0.0000 O   0  0
    1.4302   -0.8237    0.0000 N   0  0
    0.7145   -0.4125    0.0000 C   0  0
    0.7145    0.4125    0.0000 C   0  0
    0.0000    0.8250    0.0000 C   0  0
   -0.7145    0.4125    0.0000 C   0  0
   -0.7145   -0.4125    0.0000 C   0  0
   -1.4290   -0.8250    0.0000 C   0  0
   -1.4290   -1.6500    0.0000 C   0  0
   -0.7145   -2.0625    0.0000 C   0  0
    0.0000   -1.6500    0.0000 C   0  0
    0.0000   -0.8250    0.0000 C   0  0
    4.7864    1.3355    0.0000 C   0  0
    5.4425    1.4072    0.0000 C   0  0
    4.3964    1.8680    0.0000 C   0  0
    5.0524    1.9395    0.0000 C   0  0
    1.4312   -1.3737    0.0000 H   0  0
    2.8612   -1.3713    0.0000 H   0  0
  1  2  1  0
  2  3  1  0
  2  7  1  0
  3  4  1  0
  4  5  1  0
  5  6  3  0
  7  8  2  0
  7  9  1  0
  9 10  2  0
 10 11  1  0
 11 12  2  0
 12 13  1  0
 13 14  2  0
 13 15  1  0
 14  9  1  0
 15 16  1  0
 16 17  2  0
 17 18  1  0
 17 34  1  0
 18 19  2  0
 19 15  1  0
 19 20  1  0
 20 21  1  0
 20 39  1  0
 21 22  2  0
 21 23  1  0
 23 24  1  0
 23 38  1  0
 24 25  2  0
 25 26  1  0
 26 27  2  0
 27 28  1  0
 28 29  2  0
 29 30  1  0
 30 31  2  0
 31 32  1  0
 32 33  2  0
 33 24  1  0
 33 28  1  0
 34 35  1  0
 34 36  1  0
 34 37  1  0
M  END
> <CMPD_CHEMBLID>
CHEMBL1974998

> <STANDARD_TYPE>
Ki

> <RELATION>
>

> <STANDARD_VALUE>
3981.07

> <STANDARD_UNITS>
nM

> <Molecular_Weight>
494.5875

$$$$

  SciTegic11272012012D

 24 26  0  0  0  0            999 V2000
    1.2861   -0.7425    0.0000 F   0  0
    0.7145   -0.4125    0.0000 C   0  0
    0.7145    0.4125    0.0000 C   0  0
    0.0000    0.8250    0.0000 C   0  0
    0.0000    1.4850    0.0000 F   0  0
   -0.7145    0.4125    0.0000 C   0  0
   -1.4290    0.8250    0.0000 N   0  0
   -2.1435    0.4125    0.0000 C   0  0
   -2.1435   -0.4125    0.0000 C   0  0
   -1.4290   -0.8250    0.0000 C   0  0
   -1.4306   -1.6505    0.0000 N   0  0
   -2.1461   -2.0622    0.0000 C   0  0
   -2.7172   -1.7312    0.0000 O   0  0
   -2.1478   -2.8877    0.0000 N   0  0
   -2.8633   -3.2994    0.0000 C   0  0
   -2.8662   -4.1244    0.0000 C   0  0
   -3.5821   -4.5345    0.0000 N   0  0
   -4.2952   -4.1195    0.0000 C   0  0
   -4.2923   -3.2945    0.0000 C   0  0
   -3.5764   -2.8844    0.0000 N   0  0
   -0.7145   -0.4125    0.0000 C   0  0
    0.0000   -0.8250    0.0000 C   0  0
   -1.6720   -3.1635    0.0000 H   0  0
   -0.9548   -1.9263    0.0000 H   0  0
  1  2  1  0
  2  3  2  0
  3  4  1  0
  4  5  1  0
  4  6  2  0
  6  7  1  0
  7  8  2  0
  8  9  1  0
  9 10  2  0
 10 11  1  0
 10 21  1  0
 11 12  1  0
 11 24  1  0
 12 13  2  0
 12 14  1  0
 14 15  1  0
 14 23  1  0
 15 16  2  0
 16 17  1  0
 17 18  2  0
 18 19  1  0
 19 20  2  0
 20 15  1  0
 21  6  1  0
 21 22  2  0
 22  2  1  0
M  END
> <CMPD_CHEMBLID>
CHEMBL1967336

> <STANDARD_TYPE>
Ki

> <RELATION>
>

> <STANDARD_VALUE>
3981.07

> <STANDARD_UNITS>
nM

> <Molecular_Weight>
301.25097

$$$$

  SciTegic11272012012D

 25 28  0  0  0  0            999 V2000
    0.4473   -3.2291    0.0000 C   0  0
   -0.1861   -3.0438    0.0000 C   0  0
   -0.7828   -3.6135    0.0000 C   0  0
   -1.5745   -3.3817    0.0000 C   0  0
   -1.7696   -2.5801    0.0000 N   0  0
   -1.1730   -2.0103    0.0000 C   0  0
   -0.3810   -2.2449    0.0000 C   0  0
    0.1713   -1.6316    0.0000 C   0  0
    0.9918   -1.7178    0.0000 N   0  0
    1.3273   -0.9642    0.0000 C   0  0
    0.7145   -0.4125    0.0000 C   0  0
    0.7145    0.4125    0.0000 C   0  0
    0.0000    0.8250    0.0000 N   0  0
   -0.7145    0.4125    0.0000 C   0  0
   -1.4986    0.6674    0.0000 N   0  0
   -1.9836    0.0000    0.0000 C   0  0
   -1.4986   -0.6674    0.0000 C   0  0
   -0.7145   -0.4125    0.0000 C   0  0
    0.0000   -0.8250    0.0000 N   0  0
   -2.5614   -2.3465    0.0000 C   0  0
   -3.0395   -2.8014    0.0000 O   0  0
   -2.7554   -1.5441    0.0000 C   0  0
   -3.5471   -1.3105    0.0000 C   0  0
   -4.1802   -1.1237    0.0000 N   0  0
   -1.6685    1.1905    0.0000 H   0  0
  1  2  1  0
  2  3  1  0
  3  4  1  0
  4  5  1  0
  5  6  1  0
  5 20  1  0
  6  7  1  0
  7  2  1  0
  7  8  1  0
  8  9  2  0
  9 10  1  0
 10 11  2  0
 11 12  1  0
 12 13  2  0
 13 14  1  0
 14 15  1  0
 15 16  1  0
 15 25  1  0
 16 17  2  0
 17 18  1  0
 18 14  2  0
 18 19  1  0
 19  8  1  0
 19 11  1  0
 20 21  2  0
 20 22  1  0
 22 23  1  0
 23 24  3  0
M  END
> <CMPD_CHEMBLID>
CHEMBL1966175

> <STANDARD_TYPE>
Ki

> <RELATION>
>

> <STANDARD_VALUE>
3981.07

> <STANDARD_UNITS>
nM

> <Molecular_Weight>
322.36442

$$$$

  SciTegic11272012012D

 41 44  0  0  0  0            999 V2000
   10.2801   -1.4714    0.0000 C   0  0
    9.6383   -1.3177    0.0000 N   0  0
    9.4506   -0.6849    0.0000 C   0  0
    9.0700   -1.9164    0.0000 C   0  0
    8.2673   -1.7241    0.0000 C   0  0
    7.6990   -2.3228    0.0000 C   0  0
    6.8962   -2.1306    0.0000 N   0  0
    6.7086   -1.4978    0.0000 C   0  0
    6.3280   -2.7293    0.0000 C   0  0
    6.5156   -3.3621    0.0000 O   0  0
    5.5252   -2.5371    0.0000 C   0  0
    4.9564   -3.1346    0.0000 C   0  0
    4.1545   -2.9408    0.0000 C   0  0
    3.9214   -2.1494    0.0000 C   0  0
    4.4885   -1.5543    0.0000 C   0  0
    5.2921   -1.7457    0.0000 C   0  0
    4.3189   -0.7465    0.0000 N   0  0
    4.8688   -0.1315    0.0000 N   0  0
    4.4538    0.5816    0.0000 C   0  0
    3.6475    0.4072    0.0000 C   0  0
    3.5745   -0.4075    0.0000 C   0  0
    2.8602   -0.8213    0.0000 N   0  0
    2.1445   -0.4100    0.0000 C   0  0
    2.1433    0.2500    0.0000 O   0  0
    1.4302   -0.8237    0.0000 N   0  0
    0.7145   -0.4125    0.0000 C   0  0
    0.7145    0.4125    0.0000 C   0  0
    0.0000    0.8250    0.0000 C   0  0
   -0.7145    0.4125    0.0000 C   0  0
   -0.7145   -0.4125    0.0000 C   0  0
   -1.4290   -0.8250    0.0000 C   0  0
   -1.4290   -1.6500    0.0000 C   0  0
   -0.7145   -2.0625    0.0000 C   0  0
    0.0000   -1.6500    0.0000 C   0  0
    0.0000   -0.8250    0.0000 C   0  0
    4.7864    1.3355    0.0000 C   0  0
    5.4425    1.4072    0.0000 C   0  0
    4.3964    1.8680    0.0000 C   0  0
    5.0524    1.9395    0.0000 C   0  0
    1.4312   -1.3737    0.0000 H   0  0
    2.8612   -1.3713    0.0000 H   0  0
  1  2  1  0
  2  3  1  0
  2  4  1  0
  4  5  1  0
  5  6  1  0
  6  7  1  0
  7  8  1  0
  7  9  1  0
  9 10  2  0
  9 11  1  0
 11 12  2  0
 12 13  1  0
 13 14  2  0
 14 15  1  0
 15 16  2  0
 15 17  1  0
 16 11  1  0
 17 18  1  0
 18 19  2  0
 19 20  1  0
 19 36  1  0
 20 21  2  0
 21 17  1  0
 21 22  1  0
 22 23  1  0
 22 41  1  0
 23 24  2  0
 23 25  1  0
 25 26  1  0
 25 40  1  0
 26 27  2  0
 27 28  1  0
 28 29  2  0
 29 30  1  0
 30 31  2  0
 31 32  1  0
 32 33  2  0
 33 34  1  0
 34 35  2  0
 35 26  1  0
 35 30  1  0
 36 37  1  0
 36 38  1  0
 36 39  1  0
M  END
> <CMPD_CHEMBLID>
CHEMBL1964948

> <STANDARD_TYPE>
Ki

> <RELATION>
>

> <STANDARD_VALUE>
3981.07

> <STANDARD_UNITS>
nM

> <Molecular_Weight>
526.67242

$$$$

  SciTegic11272012012D

 42 45  0  0  0  0            999 V2000
    4.3969    1.8683    0.0000 C   0  0
    4.7864    1.3355    0.0000 C   0  0
    5.4425    1.4066    0.0000 C   0  0
    5.0530    1.9392    0.0000 C   0  0
    4.4538    0.5816    0.0000 C   0  0
    3.6474    0.4072    0.0000 C   0  0
    3.5744   -0.4075    0.0000 C   0  0
    2.8602   -0.8213    0.0000 N   0  0
    2.1444   -0.4100    0.0000 C   0  0
    2.1433    0.2500    0.0000 O   0  0
    1.4302   -0.8237    0.0000 N   0  0
    0.7144   -0.4125    0.0000 C   0  0
    0.7144    0.4125    0.0000 C   0  0
    0.0000    0.8250    0.0000 C   0  0
   -0.7144    0.4125    0.0000 C   0  0
   -0.7144   -0.4125    0.0000 C   0  0
   -1.4290   -0.8250    0.0000 C   0  0
   -1.4290   -1.6500    0.0000 C   0  0
   -0.7144   -2.0625    0.0000 C   0  0
    0.0000   -1.6500    0.0000 C   0  0
    0.0000   -0.8250    0.0000 C   0  0
    4.3189   -0.7465    0.0000 N   0  0
    4.8688   -0.1315    0.0000 N   0  0
    4.4885   -1.5543    0.0000 C   0  0
    3.9213   -2.1494    0.0000 C   0  0
    4.1544   -2.9408    0.0000 C   0  0
    4.9564   -3.1346    0.0000 C   0  0
    5.5251   -2.5370    0.0000 C   0  0
    5.2920   -1.7456    0.0000 C   0  0
    6.3279   -2.7293    0.0000 C   0  0
    6.5155   -3.3621    0.0000 O   0  0
    6.8962   -2.1306    0.0000 N   0  0
    7.6989   -2.3229    0.0000 C   0  0
    8.2672   -1.7241    0.0000 C   0  0
    9.0699   -1.9164    0.0000 O   0  0
    9.6382   -1.3177    0.0000 C   0  0
   10.4409   -1.5100    0.0000 C   0  0
   11.0092   -0.9112    0.0000 O   0  0
   11.5441   -1.0393    0.0000 H   0  0
    6.7399   -1.6032    0.0000 H   0  0
    1.4312   -1.3737    0.0000 H   0  0
    2.8612   -1.3713    0.0000 H   0  0
  1  2  1  0
  2  3  1  0
  2  4  1  0
  2  5  1  0
  5  6  1  0
  6  7  2  0
  7  8  1  0
  7 22  1  0
  8  9  1  0
  8 42  1  0
  9 10  2  0
  9 11  1  0
 11 12  1  0
 11 41  1  0
 12 13  2  0
 13 14  1  0
 14 15  2  0
 15 16  1  0
 16 17  2  0
 17 18  1  0
 18 19  2  0
 19 20  1  0
 20 21  2  0
 21 12  1  0
 21 16  1  0
 22 23  1  0
 22 24  1  0
 23  5  2  0
 24 25  2  0
 25 26  1  0
 26 27  2  0
 27 28  1  0
 28 29  2  0
 28 30  1  0
 29 24  1  0
 30 31  2  0
 30 32  1  0
 32 33  1  0
 32 40  1  0
 33 34  1  0
 34 35  1  0
 35 36  1  0
 36 37  1  0
 37 38  1  0
 38 39  1  0
M  END
> <CMPD_CHEMBLID>
CHEMBL1978271

> <STANDARD_TYPE>
Ki

> <RELATION>
>

> <STANDARD_VALUE>
3981.07

> <STANDARD_UNITS>
nM

> <Molecular_Weight>
515.60342

$$$$

  SciTegic11272012012D

 40 43  0  0  0  0            999 V2000
    6.7086   -1.4978    0.0000 C   0  0
    6.8963   -2.1306    0.0000 N   0  0
    7.6990   -2.3228    0.0000 C   0  0
    8.2673   -1.7242    0.0000 C   0  0
    9.0700   -1.9164    0.0000 N   0  0
    6.3280   -2.7294    0.0000 C   0  0
    6.5156   -3.3621    0.0000 O   0  0
    5.5253   -2.5371    0.0000 C   0  0
    4.9564   -3.1346    0.0000 C   0  0
    4.1545   -2.9408    0.0000 C   0  0
    3.9214   -2.1494    0.0000 C   0  0
    4.4885   -1.5543    0.0000 C   0  0
    5.2921   -1.7457    0.0000 C   0  0
    4.3189   -0.7465    0.0000 N   0  0
    4.8688   -0.1315    0.0000 N   0  0
    4.4538    0.5816    0.0000 C   0  0
    3.6475    0.4072    0.0000 C   0  0
    3.5745   -0.4075    0.0000 C   0  0
    2.8602   -0.8213    0.0000 N   0  0
    2.1445   -0.4100    0.0000 C   0  0
    2.1433    0.2500    0.0000 O   0  0
    1.4302   -0.8237    0.0000 N   0  0
    0.7145   -0.4125    0.0000 C   0  0
    0.7145    0.4125    0.0000 C   0  0
    0.0000    0.8250    0.0000 C   0  0
   -0.7145    0.4125    0.0000 C   0  0
   -0.7145   -0.4125    0.0000 C   0  0
   -1.4290   -0.8250    0.0000 C   0  0
   -1.4290   -1.6500    0.0000 C   0  0
   -0.7145   -2.0625    0.0000 C   0  0
    0.0000   -1.6500    0.0000 C   0  0
    0.0000   -0.8250    0.0000 C   0  0
    4.7864    1.3355    0.0000 C   0  0
    5.4425    1.4072    0.0000 C   0  0
    4.3964    1.8680    0.0000 C   0  0
    5.0525    1.9395    0.0000 C   0  0
    1.4312   -1.3738    0.0000 H   0  0
    2.8612   -1.3713    0.0000 H   0  0
    9.4487   -1.5175    0.0000 H   0  0
    9.2264   -2.4437    0.0000 H   0  0
  1  2  1  0
  2  3  1  0
  2  6  1  0
  3  4  1  0
  4  5  1  0
  5 39  1  0
  5 40  1  0
  6  7  2  0
  6  8  1  0
  8  9  2  0
  9 10  1  0
 10 11  2  0
 11 12  1  0
 12 13  2  0
 12 14  1  0
 13  8  1  0
 14 15  1  0
 15 16  2  0
 16 17  1  0
 16 33  1  0
 17 18  2  0
 18 14  1  0
 18 19  1  0
 19 20  1  0
 19 38  1  0
 20 21  2  0
 20 22  1  0
 22 23  1  0
 22 37  1  0
 23 24  2  0
 24 25  1  0
 25 26  2  0
 26 27  1  0
 27 28  2  0
 28 29  1  0
 29 30  2  0
 30 31  1  0
 31 32  2  0
 32 23  1  0
 32 27  1  0
 33 34  1  0
 33 35  1  0
 33 36  1  0
M  END
> <CMPD_CHEMBLID>
CHEMBL1979773

> <STANDARD_TYPE>
Ki

> <RELATION>
>

> <STANDARD_VALUE>
3981.07

> <STANDARD_UNITS>
nM

> <Molecular_Weight>
484.59268

$$$$

  SciTegic11272012012D

 28 30  0  0  0  0            999 V2000
    0.2278   -4.5653    0.0000 C   0  0
   -0.4180   -4.4290    0.0000 C   0  0
   -0.8587   -4.9204    0.0000 O   0  0
   -0.6741   -3.6443    0.0000 O   0  0
   -0.1229   -3.0298    0.0000 C   0  0
   -0.3790   -2.2450    0.0000 C   0  0
    0.1713   -1.6316    0.0000 N   0  0
    0.9918   -1.7179    0.0000 N   0  0
    1.3273   -0.9642    0.0000 C   0  0
    2.1348   -0.7925    0.0000 C   0  0
    2.7291   -1.3607    0.0000 C   0  0
    3.5209   -1.1288    0.0000 C   0  0
    3.7159   -0.3272    0.0000 C   0  0
    3.1193    0.2426    0.0000 C   0  0
    3.2754    0.8839    0.0000 Br  0  0
    2.3275    0.0107    0.0000 C   0  0
    0.7145   -0.4125    0.0000 C   0  0
    0.7145    0.4125    0.0000 C   0  0
    0.0000    0.8250    0.0000 C   0  0
   -0.7145    0.4125    0.0000 C   0  0
   -1.2861    0.7425    0.0000 O   0  0
   -0.7145   -0.4125    0.0000 N   0  0
    0.0000   -0.8250    0.0000 C   0  0
    1.4294    0.8252    0.0000 C   0  0
    2.0012    0.4956    0.0000 F   0  0
    1.4292    1.4853    0.0000 F   0  0
    2.0008    1.1555    0.0000 F   0  0
   -1.1908   -0.6875    0.0000 H   0  0
  1  2  1  0
  2  3  2  0
  2  4  1  0
  4  5  1  0
  5  6  1  0
  6  7  1  0
  7  8  1  0
  8  9  2  0
  9 10  1  0
  9 17  1  0
 10 11  2  0
 11 12  1  0
 12 13  2  0
 13 14  1  0
 14 15  1  0
 14 16  2  0
 16 10  1  0
 17 18  1  0
 18 19  2  0
 18 24  1  0
 19 20  1  0
 20 21  2  0
 20 22  1  0
 22 23  1  0
 22 28  1  0
 23  7  1  0
 23 17  2  0
 24 25  1  0
 24 26  1  0
 24 27  1  0
M  END
> <CMPD_CHEMBLID>
CHEMBL1984847

> <STANDARD_TYPE>
Ki

> <RELATION>
>

> <STANDARD_VALUE>
3981.07

> <STANDARD_UNITS>
nM

> <Molecular_Weight>
444.20263

$$$$

  SciTegic11272012012D

 28 30  0  0  0  0            999 V2000
    1.2861   -0.7425    0.0000 F   0  0
    0.7144   -0.4125    0.0000 C   0  0
    0.7144    0.4125    0.0000 C   0  0
    0.0000    0.8250    0.0000 C   0  0
    0.0000    1.6500    0.0000 N   0  0
   -0.7145    2.0625    0.0000 C   0  0
   -1.4290    1.6500    0.0000 C   0  0
   -1.4290    0.8250    0.0000 C   0  0
   -2.1447    0.4137    0.0000 N   0  0
   -2.8590    0.8275    0.0000 C   0  0
   -2.8578    1.4875    0.0000 O   0  0
   -3.5747    0.4162    0.0000 N   0  0
   -4.2889    0.8299    0.0000 C   0  0
   -5.0048    0.4200    0.0000 C   0  0
   -5.7179    0.8349    0.0000 C   0  0
   -5.7150    1.6599    0.0000 C   0  0
   -4.9992    2.0699    0.0000 C   0  0
   -4.2861    1.6550    0.0000 N   0  0
   -4.9963    2.8954    0.0000 C   0  0
   -5.5665    3.2277    0.0000 F   0  0
   -4.4235    3.2232    0.0000 F   0  0
   -4.9937    3.5554    0.0000 F   0  0
   -0.7144    0.4125    0.0000 C   0  0
   -0.7144   -0.4125    0.0000 C   0  0
    0.0000   -0.8250    0.0000 C   0  0
    0.0000   -1.4850    0.0000 F   0  0
   -3.5756   -0.1338    0.0000 H   0  0
   -2.1456   -0.1363    0.0000 H   0  0
  1  2  1  0
  2  3  2  0
  3  4  1  0
  4  5  2  0
  5  6  1  0
  6  7  2  0
  7  8  1  0
  8  9  1  0
  8 23  2  0
  9 10  1  0
  9 28  1  0
 10 11  2  0
 10 12  1  0
 12 13  1  0
 12 27  1  0
 13 14  2  0
 14 15  1  0
 15 16  2  0
 16 17  1  0
 17 18  2  0
 17 19  1  0
 18 13  1  0
 19 20  1  0
 19 21  1  0
 19 22  1  0
 23  4  1  0
 23 24  1  0
 24 25  2  0
 25  2  1  0
 25 26  1  0
M  END
> <CMPD_CHEMBLID>
CHEMBL1981792

> <STANDARD_TYPE>
Ki

> <RELATION>
>

> <STANDARD_VALUE>
3981.07

> <STANDARD_UNITS>
nM

> <Molecular_Weight>
368.26088

$$$$

  SciTegic11272012012D

 27 29  0  0  0  0            999 V2000
    4.8520    1.9903    0.0000 F   0  0
    4.2818    1.6579    0.0000 C   0  0
    3.7090    1.9858    0.0000 F   0  0
    4.2792    2.3179    0.0000 F   0  0
    4.2847    0.8325    0.0000 C   0  0
    5.0005    0.4225    0.0000 C   0  0
    5.0034   -0.4025    0.0000 C   0  0
    4.2904   -0.8175    0.0000 C   0  0
    3.5744   -0.4075    0.0000 C   0  0
    2.8602   -0.8213    0.0000 N   0  0
    2.1444   -0.4100    0.0000 C   0  0
    2.1433    0.2500    0.0000 O   0  0
    1.4302   -0.8237    0.0000 N   0  0
    0.7144   -0.4125    0.0000 C   0  0
    0.7144    0.4125    0.0000 C   0  0
    0.0000    0.8250    0.0000 C   0  0
   -0.7144    0.4125    0.0000 N   0  0
   -0.7144   -0.4125    0.0000 C   0  0
   -1.4290   -0.8250    0.0000 C   0  0
   -1.4290   -1.6500    0.0000 C   0  0
   -2.0005   -1.9800    0.0000 Cl  0  0
   -0.7144   -2.0625    0.0000 C   0  0
    0.0000   -1.6500    0.0000 C   0  0
    0.0000   -0.8250    0.0000 C   0  0
    3.5716    0.4175    0.0000 N   0  0
    1.4312   -1.3737    0.0000 H   0  0
    2.8612   -1.3713    0.0000 H   0  0
  1  2  1  0
  2  3  1  0
  2  4  1  0
  2  5  1  0
  5  6  2  0
  6  7  1  0
  7  8  2  0
  8  9  1  0
  9 10  1  0
  9 25  2  0
 10 11  1  0
 10 27  1  0
 11 12  2  0
 11 13  1  0
 13 14  1  0
 13 26  1  0
 14 15  2  0
 15 16  1  0
 16 17  2  0
 17 18  1  0
 18 19  2  0
 19 20  1  0
 20 21  1  0
 20 22  2  0
 22 23  1  0
 23 24  2  0
 24 14  1  0
 24 18  1  0
 25  5  1  0
M  END
> <CMPD_CHEMBLID>
CHEMBL1981744

> <STANDARD_TYPE>
Ki

> <RELATION>
=

> <STANDARD_VALUE>
3981.07

> <STANDARD_UNITS>
nM

> <Molecular_Weight>
366.72501

$$$$

  SciTegic11272012012D

 33 37  0  0  0  0            999 V2000
    2.1324   -4.5419    0.0000 N   0  0
    1.4198   -4.1253    0.0000 C   0  0
    1.4227   -3.2999    0.0000 C   0  0
    2.1388   -2.8893    0.0000 O   0  0
    2.1419   -2.0639    0.0000 C   0  0
    2.8570   -1.6525    0.0000 C   0  0
    2.8583   -0.8275    0.0000 N   0  0
    2.1445   -0.4139    0.0000 C   0  0
    1.4293   -0.8252    0.0000 C   0  0
    1.4281   -1.6502    0.0000 C   0  0
    0.7144   -0.4125    0.0000 C   0  0
    0.7144    0.4125    0.0000 C   0  0
    0.0000    0.8250    0.0000 C   0  0
   -0.7144    0.4125    0.0000 C   0  0
   -1.4290    0.8250    0.0000 C   0  0
   -2.1434    0.4125    0.0000 N   0  0
   -2.1434   -0.4125    0.0000 C   0  0
   -1.4290   -0.8250    0.0000 C   0  0
   -0.7144   -0.4125    0.0000 C   0  0
    0.0000   -0.8250    0.0000 C   0  0
    0.7037   -4.5359    0.0000 C   0  0
    0.7006   -5.3613    0.0000 C   0  0
    1.3672   -5.8354    0.0000 C   0  0
    1.1109   -6.6196    0.0000 N   0  0
    0.2864   -6.6180    0.0000 C   0  0
   -0.2668   -7.2302    0.0000 C   0  0
   -1.0734   -7.0572    0.0000 C   0  0
   -1.3270   -6.2721    0.0000 C   0  0
   -0.7739   -5.6601    0.0000 C   0  0
    0.0328   -5.8330    0.0000 C   0  0
    1.4334   -7.0652    0.0000 H   0  0
    2.1298   -5.0919    0.0000 H   0  0
    2.6101   -4.2693    0.0000 H   0  0
  1  2  1  0
  1 32  1  0
  1 33  1  0
  2  3  1  0
  2 21  1  0
  3  4  1  0
  4  5  1  0
  5  6  2  0
  6  7  1  0
  7  8  2  0
  8  9  1  0
  9 10  2  0
  9 11  1  0
 10  5  1  0
 11 12  2  0
 12 13  1  0
 13 14  2  0
 14 15  1  0
 15 16  2  0
 16 17  1  0
 17 18  2  0
 18 19  1  0
 19 14  1  0
 19 20  2  0
 20 11  1  0
 21 22  1  0
 22 23  2  0
 23 24  1  0
 24 25  1  0
 24 31  1  0
 25 26  2  0
 26 27  1  0
 27 28  2  0
 28 29  1  0
 29 30  2  0
 30 22  1  0
 30 25  1  0
M  END
> <CMPD_CHEMBLID>
CHEMBL1981133

> <STANDARD_TYPE>
Ki

> <RELATION>
>

> <STANDARD_VALUE>
3981.07

> <STANDARD_UNITS>
nM

> <Molecular_Weight>
394.46838

$$$$

  SciTegic11272012012D

 26 29  0  0  0  0            999 V2000
    1.2861   -0.7425    0.0000 C   0  0
    0.7144   -0.4125    0.0000 C   0  0
    0.7144    0.4125    0.0000 C   0  0
    0.0000    0.8250    0.0000 C   0  0
   -0.0017    1.6504    0.0000 O   0  0
   -0.7144    0.4125    0.0000 N   0  0
   -0.7144   -0.4125    0.0000 C   0  0
   -1.3273   -0.9641    0.0000 N   0  0
   -0.9918   -1.7178    0.0000 N   0  0
   -0.1713   -1.6316    0.0000 C   0  0
    0.3811   -2.2449    0.0000 C   0  0
    0.1862   -3.0438    0.0000 C   0  0
    0.7828   -3.6135    0.0000 C   0  0
    1.5746   -3.3816    0.0000 C   0  0
    1.7697   -2.5800    0.0000 C   0  0
    1.1730   -2.0103    0.0000 C   0  0
    2.5618   -2.3481    0.0000 C   0  0
    3.1594   -2.9169    0.0000 C   0  0
    3.9508   -2.6837    0.0000 C   0  0
    4.1446   -1.8818    0.0000 C   0  0
    4.7777   -1.6953    0.0000 Cl  0  0
    3.5471   -1.3130    0.0000 C   0  0
    2.7557   -1.5462    0.0000 C   0  0
    0.0000   -0.8250    0.0000 C   0  0
   -1.8653   -0.8497    0.0000 H   0  0
   -0.4784    1.9248    0.0000 H   0  0
  1  2  1  0
  2  3  2  0
  3  4  1  0
  4  5  1  0
  4  6  2  0
  5 26  1  0
  6  7  1  0
  7  8  1  0
  8  9  1  0
  8 25  1  0
  9 10  2  0
 10 11  1  0
 10 24  1  0
 11 12  2  0
 12 13  1  0
 13 14  2  0
 14 15  1  0
 15 16  2  0
 15 17  1  0
 16 11  1  0
 17 18  2  0
 18 19  1  0
 19 20  2  0
 20 21  1  0
 20 22  1  0
 22 23  2  0
 23 17  1  0
 24  2  1  0
 24  7  2  0
M  END
> <CMPD_CHEMBLID>
CHEMBL1990590

> <STANDARD_TYPE>
Ki

> <RELATION>
>

> <STANDARD_VALUE>
3981.07

> <STANDARD_UNITS>
nM

> <Molecular_Weight>
335.78696

$$$$

  SciTegic11272012012D

 23 25  0  0  0  0            999 V2000
    1.2861   -0.7425    0.0000 C   0  0
    0.7145   -0.4125    0.0000 C   0  0
    0.7145    0.4125    0.0000 C   0  0
    0.0000    0.8250    0.0000 C   0  0
    0.0000    1.4850    0.0000 O   0  0
   -0.7145    0.4125    0.0000 N   0  0
   -0.7145   -0.4125    0.0000 C   0  0
   -1.3273   -0.9642    0.0000 N   0  0
   -0.9918   -1.7179    0.0000 N   0  0
   -0.1713   -1.6316    0.0000 C   0  0
    0.3811   -2.2450    0.0000 C   0  0
    0.1862   -3.0438    0.0000 C   0  0
    0.7828   -3.6136    0.0000 C   0  0
    1.5746   -3.3817    0.0000 C   0  0
    1.7697   -2.5801    0.0000 C   0  0
    1.1730   -2.0103    0.0000 C   0  0
    2.5619   -2.3481    0.0000 C   0  0
    3.0395   -2.8036    0.0000 F   0  0
    2.7178   -1.7067    0.0000 F   0  0
    3.1952   -2.1623    0.0000 F   0  0
    0.0000   -0.8250    0.0000 C   0  0
   -1.8654   -0.8498    0.0000 H   0  0
   -1.1908    0.6875    0.0000 H   0  0
  1  2  1  0
  2  3  2  0
  3  4  1  0
  4  5  2  0
  4  6  1  0
  6  7  1  0
  6 23  1  0
  7  8  1  0
  8  9  1  0
  8 22  1  0
  9 10  2  0
 10 11  1  0
 10 21  1  0
 11 12  2  0
 12 13  1  0
 13 14  2  0
 14 15  1  0
 15 16  2  0
 15 17  1  0
 16 11  1  0
 17 18  1  0
 17 19  1  0
 17 20  1  0
 21  2  1  0
 21  7  2  0
M  END
> <CMPD_CHEMBLID>
CHEMBL1991377

> <STANDARD_TYPE>
Ki

> <RELATION>
>

> <STANDARD_VALUE>
3981.07

> <STANDARD_UNITS>
nM

> <Molecular_Weight>
293.24391

$$$$

  SciTegic11272012012D

 41 44  0  0  0  0            999 V2000
    4.3969    1.8683    0.0000 C   0  0
    4.7864    1.3355    0.0000 C   0  0
    5.4425    1.4066    0.0000 C   0  0
    5.0530    1.9392    0.0000 C   0  0
    4.4538    0.5816    0.0000 C   0  0
    3.6474    0.4072    0.0000 C   0  0
    3.5744   -0.4075    0.0000 C   0  0
    2.8602   -0.8213    0.0000 N   0  0
    2.1444   -0.4100    0.0000 C   0  0
    2.1433    0.2500    0.0000 O   0  0
    1.4302   -0.8237    0.0000 N   0  0
    0.7144   -0.4125    0.0000 C   0  0
    0.7144    0.4125    0.0000 C   0  0
    0.0000    0.8250    0.0000 C   0  0
   -0.7144    0.4125    0.0000 C   0  0
   -0.7144   -0.4125    0.0000 C   0  0
   -1.4290   -0.8250    0.0000 C   0  0
   -1.4290   -1.6500    0.0000 C   0  0
   -0.7144   -2.0625    0.0000 C   0  0
    0.0000   -1.6500    0.0000 C   0  0
    0.0000   -0.8250    0.0000 C   0  0
    4.3189   -0.7465    0.0000 N   0  0
    4.8688   -0.1315    0.0000 N   0  0
    4.4885   -1.5543    0.0000 C   0  0
    3.9213   -2.1494    0.0000 C   0  0
    4.1544   -2.9408    0.0000 C   0  0
    4.9564   -3.1346    0.0000 C   0  0
    5.5251   -2.5370    0.0000 C   0  0
    5.2920   -1.7456    0.0000 C   0  0
    6.3279   -2.7293    0.0000 C   0  0
    6.5155   -3.3621    0.0000 O   0  0
    6.8962   -2.1306    0.0000 N   0  0
    7.6989   -2.3229    0.0000 C   0  0
    8.2672   -1.7241    0.0000 C   0  0
    9.0699   -1.9164    0.0000 C   0  0
    9.6382   -1.3177    0.0000 C   0  0
   10.4409   -1.5100    0.0000 O   0  0
   10.8196   -1.1111    0.0000 H   0  0
    6.7399   -1.6032    0.0000 H   0  0
    1.4312   -1.3737    0.0000 H   0  0
    2.8612   -1.3713    0.0000 H   0  0
  1  2  1  0
  2  3  1  0
  2  4  1  0
  2  5  1  0
  5  6  1  0
  6  7  2  0
  7  8  1  0
  7 22  1  0
  8  9  1  0
  8 41  1  0
  9 10  2  0
  9 11  1  0
 11 12  1  0
 11 40  1  0
 12 13  2  0
 13 14  1  0
 14 15  2  0
 15 16  1  0
 16 17  2  0
 17 18  1  0
 18 19  2  0
 19 20  1  0
 20 21  2  0
 21 12  1  0
 21 16  1  0
 22 23  1  0
 22 24  1  0
 23  5  2  0
 24 25  2  0
 25 26  1  0
 26 27  2  0
 27 28  1  0
 28 29  2  0
 28 30  1  0
 29 24  1  0
 30 31  2  0
 30 32  1  0
 32 33  1  0
 32 39  1  0
 33 34  1  0
 34 35  1  0
 35 36  1  0
 36 37  1  0
 37 38  1  0
M  END
> <CMPD_CHEMBLID>
CHEMBL1994977

> <STANDARD_TYPE>
Ki

> <RELATION>
>

> <STANDARD_VALUE>
3981.07

> <STANDARD_UNITS>
nM

> <Molecular_Weight>
499.60402

$$$$

  SciTegic11272012012D

 28 30  0  0  0  0            999 V2000
    1.4276   -1.4867    0.0000 C   0  0
    1.4285   -0.8267    0.0000 C   0  0
    0.7144   -0.4125    0.0000 C   0  0
    0.7144    0.4125    0.0000 C   0  0
    0.0000    0.8250    0.0000 C   0  0
   -0.7144    0.4125    0.0000 C   0  0
   -1.4290    0.8250    0.0000 C   0  0
   -1.4307    1.6504    0.0000 N   0  0
   -2.1461    2.0622    0.0000 C   0  0
   -2.7171    1.7312    0.0000 O   0  0
   -2.1478    2.8876    0.0000 N   0  0
   -2.8632    3.2993    0.0000 C   0  0
   -2.8662    4.1243    0.0000 C   0  0
   -3.5821    4.5344    0.0000 C   0  0
   -4.2951    4.1194    0.0000 C   0  0
   -4.2923    3.2944    0.0000 C   0  0
   -3.5764    2.8844    0.0000 N   0  0
   -5.0057    2.8792    0.0000 C   0  0
   -5.5786    3.2068    0.0000 F   0  0
   -5.0032    2.2192    0.0000 F   0  0
   -5.5760    2.5469    0.0000 F   0  0
   -2.1434    0.4125    0.0000 C   0  0
   -2.1434   -0.4125    0.0000 C   0  0
   -1.4290   -0.8250    0.0000 N   0  0
   -0.7144   -0.4125    0.0000 C   0  0
    0.0000   -0.8250    0.0000 C   0  0
   -1.6720    3.1634    0.0000 H   0  0
   -0.9548    1.9263    0.0000 H   0  0
  1  2  1  0
  2  3  1  0
  3  4  2  0
  4  5  1  0
  5  6  2  0
  6  7  1  0
  7  8  1  0
  7 22  2  0
  8  9  1  0
  8 28  1  0
  9 10  2  0
  9 11  1  0
 11 12  1  0
 11 27  1  0
 12 13  2  0
 13 14  1  0
 14 15  2  0
 15 16  1  0
 16 17  2  0
 16 18  1  0
 17 12  1  0
 18 19  1  0
 18 20  1  0
 18 21  1  0
 22 23  1  0
 23 24  2  0
 24 25  1  0
 25  6  1  0
 25 26  2  0
 26  3  1  0
M  END
> <CMPD_CHEMBLID>
CHEMBL1986756

> <STANDARD_TYPE>
Ki

> <RELATION>
>

> <STANDARD_VALUE>
3981.07

> <STANDARD_UNITS>
nM

> <Molecular_Weight>
360.33311

$$$$

  SciTegic11272012012D

 43 46  0  0  0  0            999 V2000
    4.3969    1.8683    0.0000 C   0  0
    4.7864    1.3355    0.0000 C   0  0
    5.4425    1.4066    0.0000 C   0  0
    5.0530    1.9392    0.0000 C   0  0
    4.4538    0.5816    0.0000 C   0  0
    3.6474    0.4072    0.0000 C   0  0
    3.5744   -0.4075    0.0000 C   0  0
    2.8602   -0.8213    0.0000 N   0  0
    2.1444   -0.4100    0.0000 C   0  0
    2.1433    0.2500    0.0000 O   0  0
    1.4302   -0.8237    0.0000 N   0  0
    0.7144   -0.4125    0.0000 C   0  0
    0.7144    0.4125    0.0000 C   0  0
    0.0000    0.8250    0.0000 C   0  0
   -0.7144    0.4125    0.0000 C   0  0
   -0.7144   -0.4125    0.0000 C   0  0
   -1.4290   -0.8250    0.0000 C   0  0
   -1.4290   -1.6500    0.0000 C   0  0
   -0.7144   -2.0625    0.0000 C   0  0
    0.0000   -1.6500    0.0000 C   0  0
    0.0000   -0.8250    0.0000 C   0  0
    4.3189   -0.7465    0.0000 N   0  0
    4.8688   -0.1315    0.0000 N   0  0
    4.4885   -1.5543    0.0000 C   0  0
    3.9213   -2.1494    0.0000 C   0  0
    4.1544   -2.9408    0.0000 C   0  0
    4.9564   -3.1346    0.0000 C   0  0
    5.5251   -2.5370    0.0000 C   0  0
    5.2920   -1.7456    0.0000 C   0  0
    6.3279   -2.7293    0.0000 C   0  0
    6.5155   -3.3621    0.0000 O   0  0
    6.8962   -2.1306    0.0000 N   0  0
    7.6989   -2.3229    0.0000 C   0  0
    8.2672   -1.7241    0.0000 C   0  0
    9.0699   -1.9164    0.0000 C   0  0
    9.6382   -1.3177    0.0000 C   0  0
   10.4409   -1.5100    0.0000 C   0  0
   10.6285   -2.1427    0.0000 O   0  0
   11.0092   -0.9112    0.0000 O   0  0
   11.5441   -1.0393    0.0000 H   0  0
    6.7399   -1.6032    0.0000 H   0  0
    1.4312   -1.3737    0.0000 H   0  0
    2.8612   -1.3713    0.0000 H   0  0
  1  2  1  0
  2  3  1  0
  2  4  1  0
  2  5  1  0
  5  6  1  0
  6  7  2  0
  7  8  1  0
  7 22  1  0
  8  9  1  0
  8 43  1  0
  9 10  2  0
  9 11  1  0
 11 12  1  0
 11 42  1  0
 12 13  2  0
 13 14  1  0
 14 15  2  0
 15 16  1  0
 16 17  2  0
 17 18  1  0
 18 19  2  0
 19 20  1  0
 20 21  2  0
 21 12  1  0
 21 16  1  0
 22 23  1  0
 22 24  1  0
 23  5  2  0
 24 25  2  0
 25 26  1  0
 26 27  2  0
 27 28  1  0
 28 29  2  0
 28 30  1  0
 29 24  1  0
 30 31  2  0
 30 32  1  0
 32 33  1  0
 32 41  1  0
 33 34  1  0
 34 35  1  0
 35 36  1  0
 36 37  1  0
 37 38  2  0
 37 39  1  0
 39 40  1  0
M  END
> <CMPD_CHEMBLID>
CHEMBL1999506

> <STANDARD_TYPE>
Ki

> <RELATION>
>

> <STANDARD_VALUE>
3981.07

> <STANDARD_UNITS>
nM

> <Molecular_Weight>
527.61412

$$$$

  SciTegic11272012012D

 28 31  0  0  0  0            999 V2000
   -3.4122   -4.9297    0.0000 C   0  0
   -3.5659   -4.2879    0.0000 C   0  0
   -2.9672   -3.7196    0.0000 O   0  0
   -3.1594   -2.9169    0.0000 C   0  0
   -3.9508   -2.6838    0.0000 C   0  0
   -4.1446   -1.8819    0.0000 C   0  0
   -3.5471   -1.3131    0.0000 C   0  0
   -2.7557   -1.5462    0.0000 C   0  0
   -2.5618   -2.3481    0.0000 C   0  0
   -1.7696   -2.5800    0.0000 C   0  0
   -1.5745   -3.3817    0.0000 C   0  0
   -0.7828   -3.6135    0.0000 C   0  0
   -0.1861   -3.0438    0.0000 C   0  0
   -0.3810   -2.2449    0.0000 C   0  0
   -1.1730   -2.0103    0.0000 C   0  0
    0.1713   -1.6316    0.0000 C   0  0
    0.9918   -1.7178    0.0000 N   0  0
    1.3273   -0.9641    0.0000 N   0  0
    0.7144   -0.4125    0.0000 C   0  0
    0.7144    0.4125    0.0000 N   0  0
    0.0000    0.8250    0.0000 C   0  0
   -0.0017    1.6504    0.0000 O   0  0
   -0.7144    0.4125    0.0000 C   0  0
   -0.7144   -0.4125    0.0000 C   0  0
   -1.2861   -0.7425    0.0000 C   0  0
    0.0000   -0.8250    0.0000 C   0  0
   -0.4784    1.9248    0.0000 H   0  0
    1.8653   -0.8497    0.0000 H   0  0
  1  2  1  0
  2  3  1  0
  3  4  1  0
  4  5  2  0
  5  6  1  0
  6  7  2  0
  7  8  1  0
  8  9  2  0
  9  4  1  0
  9 10  1  0
 10 11  2  0
 11 12  1  0
 12 13  2  0
 13 14  1  0
 14 15  2  0
 14 16  1  0
 15 10  1  0
 16 17  2  0
 17 18  1  0
 18 19  1  0
 18 28  1  0
 19 20  2  0
 20 21  1  0
 21 22  1  0
 21 23  2  0
 22 27  1  0
 23 24  1  0
 24 25  1  0
 24 26  2  0
 26 16  1  0
 26 19  1  0
M  END
> <CMPD_CHEMBLID>
CHEMBL1983070

> <STANDARD_TYPE>
Ki

> <RELATION>
>

> <STANDARD_VALUE>
3981.07

> <STANDARD_UNITS>
nM

> <Molecular_Weight>
345.39446

$$$$

  SciTegic11272012012D

 27 29  0  0  0  0            999 V2000
    3.5710   -0.4150    0.0000 O   0  0
    2.8563   -0.8279    0.0000 C   0  0
    2.8561   -1.6534    0.0000 C   0  0
    2.1413   -2.0663    0.0000 C   0  0
    1.4273   -1.6521    0.0000 N   0  0
    1.4285   -0.8267    0.0000 C   0  0
    2.0006   -0.4977    0.0000 O   0  0
    0.7144   -0.4125    0.0000 C   0  0
    0.7144    0.4125    0.0000 C   0  0
    0.0000    0.8250    0.0000 C   0  0
   -0.7144    0.4125    0.0000 C   0  0
   -0.7144   -0.4125    0.0000 C   0  0
    0.0000   -0.8250    0.0000 C   0  0
   -1.4293    0.8252    0.0000 C   0  0
   -1.4307    1.6502    0.0000 C   0  0
   -2.1458    2.0616    0.0000 C   0  0
   -2.8596    1.6480    0.0000 N   0  0
   -2.8583    0.8230    0.0000 C   0  0
   -2.1432    0.4116    0.0000 C   0  0
    2.1401   -2.8918    0.0000 C   0  0
    2.8532   -3.3068    0.0000 C   0  0
    2.8503   -4.1318    0.0000 C   0  0
    2.1344   -4.5418    0.0000 C   0  0
    1.4214   -4.1268    0.0000 C   0  0
    1.4242   -3.3019    0.0000 C   0  0
    0.9505   -1.9263    0.0000 H   0  0
    3.5712    0.1350    0.0000 H   0  0
  1  2  1  0
  1 27  1  0
  2  3  1  0
  3  4  1  0
  4  5  1  0
  4 20  1  0
  5  6  1  0
  5 26  1  0
  6  7  2  0
  6  8  1  0
  8  9  2  0
  9 10  1  0
 10 11  2  0
 11 12  1  0
 11 14  1  0
 12 13  2  0
 13  8  1  0
 14 15  2  0
 15 16  1  0
 16 17  2  0
 17 18  1  0
 18 19  2  0
 19 14  1  0
 20 21  2  0
 21 22  1  0
 22 23  2  0
 23 24  1  0
 24 25  2  0
 25 20  1  0
M  END
> <CMPD_CHEMBLID>
CHEMBL1986143

> <STANDARD_TYPE>
Ki

> <RELATION>
>

> <STANDARD_VALUE>
3981.07

> <STANDARD_UNITS>
nM

> <Molecular_Weight>
332.3957

$$$$

  SciTegic11272012012D

 46 49  0  0  0  0            999 V2000
    4.1411   -3.2278    0.0000 C   0  0
    3.5706   -2.8960    0.0000 C   0  0
    2.8542   -3.3060    0.0000 N   0  0
    2.1402   -2.8918    0.0000 C   0  0
    2.1413   -2.0663    0.0000 C   0  0
    1.4273   -1.6521    0.0000 C   0  0
    1.4285   -0.8267    0.0000 O   0  0
    0.7144   -0.4125    0.0000 C   0  0
    0.7144    0.4125    0.0000 C   0  0
    0.0000    0.8250    0.0000 C   0  0
   -0.7144    0.4125    0.0000 C   0  0
   -1.4290    0.8250    0.0000 C   0  0
   -1.4307    1.6504    0.0000 N   0  0
   -2.1461    2.0622    0.0000 C   0  0
   -2.2247    2.8763    0.0000 C   0  0
   -3.0323    3.0451    0.0000 C   0  0
   -3.3686    3.7974    0.0000 C   0  0
   -2.8847    4.4662    0.0000 C   0  0
   -2.2282    4.3983    0.0000 O   0  0
   -3.2216    5.2198    0.0000 N   0  0
   -2.7377    5.8886    0.0000 C   0  0
   -3.0732    6.6423    0.0000 C   0  0
   -2.5883    7.3097    0.0000 C   0  0
   -1.7679    7.2235    0.0000 C   0  0
   -1.4323    6.4699    0.0000 C   0  0
   -0.7759    6.4008    0.0000 F   0  0
   -1.9172    5.8024    0.0000 C   0  0
   -3.4423    2.3291    0.0000 N   0  0
   -2.8882    1.7180    0.0000 N   0  0
   -2.1434    0.4125    0.0000 N   0  0
   -2.1434   -0.4125    0.0000 C   0  0
   -1.4290   -0.8250    0.0000 N   0  0
   -0.7144   -0.4125    0.0000 C   0  0
    0.0000   -0.8250    0.0000 C   0  0
    2.8530   -4.1314    0.0000 C   0  0
    3.5670   -4.5456    0.0000 C   0  0
    3.5658   -5.3711    0.0000 O   0  0
    4.2798   -5.7853    0.0000 P   0  0
    3.7077   -6.1143    0.0000 O   0  0
    4.2787   -6.6107    0.0000 O   0  0
    4.9954   -5.3738    0.0000 O   0  0
    5.4714   -5.6494    0.0000 H   0  0
    4.7544   -6.8867    0.0000 H   0  0
   -3.9891    2.2697    0.0000 H   0  0
   -3.7686    5.2764    0.0000 H   0  0
   -0.9548    1.9263    0.0000 H   0  0
  1  2  1  0
  2  3  1  0
  3  4  1  0
  3 35  1  0
  4  5  1  0
  5  6  1  0
  6  7  1  0
  7  8  1  0
  8  9  2  0
  9 10  1  0
 10 11  2  0
 11 12  1  0
 12 13  1  0
 12 30  2  0
 13 14  1  0
 13 46  1  0
 14 15  1  0
 15 16  2  0
 16 17  1  0
 16 28  1  0
 17 18  1  0
 18 19  2  0
 18 20  1  0
 20 21  1  0
 20 45  1  0
 21 22  2  0
 22 23  1  0
 23 24  2  0
 24 25  1  0
 25 26  1  0
 25 27  2  0
 27 21  1  0
 28 29  1  0
 28 44  1  0
 29 14  2  0
 30 31  1  0
 31 32  2  0
 32 33  1  0
 33 11  1  0
 33 34  2  0
 34  8  1  0
 35 36  1  0
 36 37  1  0
 37 38  1  0
 38 39  2  0
 38 40  1  0
 38 41  1  0
 40 43  1  0
 41 42  1  0
M  END
> <CMPD_CHEMBLID>
CHEMBL415049

> <STANDARD_TYPE>
Ki

> <RELATION>
>

> <STANDARD_VALUE>
3981.07

> <STANDARD_UNITS>
nM

> <Molecular_Weight>
587.5398

$$$$

  SciTegic11272012012D

 27 30  0  0  0  0            999 V2000
    1.2861   -0.7425    0.0000 C   0  0
    0.7144   -0.4125    0.0000 C   0  0
    0.7144    0.4125    0.0000 C   0  0
    0.0000    0.8250    0.0000 C   0  0
   -0.0017    1.6504    0.0000 O   0  0
   -0.7144    0.4125    0.0000 N   0  0
   -0.7144   -0.4125    0.0000 C   0  0
   -1.3273   -0.9641    0.0000 N   0  0
   -0.9918   -1.7178    0.0000 N   0  0
   -0.1713   -1.6316    0.0000 C   0  0
    0.3811   -2.2449    0.0000 C   0  0
    0.1862   -3.0438    0.0000 C   0  0
    0.7828   -3.6135    0.0000 C   0  0
    1.5746   -3.3816    0.0000 C   0  0
    1.7697   -2.5800    0.0000 C   0  0
    1.1730   -2.0103    0.0000 C   0  0
    2.5618   -2.3481    0.0000 C   0  0
    3.1594   -2.9169    0.0000 C   0  0
    3.9508   -2.6837    0.0000 C   0  0
    4.1446   -1.8818    0.0000 C   0  0
    3.5471   -1.3130    0.0000 C   0  0
    2.7557   -1.5462    0.0000 C   0  0
    4.9365   -1.6486    0.0000 C   0  0
    5.5696   -1.4621    0.0000 N   0  0
    0.0000   -0.8250    0.0000 C   0  0
   -1.8653   -0.8497    0.0000 H   0  0
   -0.4784    1.9248    0.0000 H   0  0
  1  2  1  0
  2  3  2  0
  3  4  1  0
  4  5  1  0
  4  6  2  0
  5 27  1  0
  6  7  1  0
  7  8  1  0
  8  9  1  0
  8 26  1  0
  9 10  2  0
 10 11  1  0
 10 25  1  0
 11 12  2  0
 12 13  1  0
 13 14  2  0
 14 15  1  0
 15 16  2  0
 15 17  1  0
 16 11  1  0
 17 18  2  0
 18 19  1  0
 19 20  2  0
 20 21  1  0
 20 23  1  0
 21 22  2  0
 22 17  1  0
 23 24  3  0
 25  2  1  0
 25  7  2  0
M  END
> <CMPD_CHEMBLID>
CHEMBL2000724

> <STANDARD_TYPE>
Ki

> <RELATION>
>

> <STANDARD_VALUE>
3981.07

> <STANDARD_UNITS>
nM

> <Molecular_Weight>
326.35136

$$$$

  SciTegic11272012012D

 28 30  0  0  0  0            999 V2000
    1.2861   -0.7425    0.0000 F   0  0
    0.7144   -0.4125    0.0000 C   0  0
    0.7144    0.4125    0.0000 C   0  0
    0.0000    0.8250    0.0000 C   0  0
   -0.7144    0.4125    0.0000 C   0  0
   -1.2861    0.7425    0.0000 F   0  0
   -0.7144   -0.4125    0.0000 C   0  0
   -1.4290   -0.8250    0.0000 C   0  0
   -2.1447   -0.4138    0.0000 N   0  0
   -2.8590   -0.8275    0.0000 C   0  0
   -2.8578   -1.4875    0.0000 O   0  0
   -3.5747   -0.4162    0.0000 N   0  0
   -4.2889   -0.8300    0.0000 C   0  0
   -5.0048   -0.4200    0.0000 C   0  0
   -5.7179   -0.8350    0.0000 C   0  0
   -5.7150   -1.6600    0.0000 C   0  0
   -4.9991   -2.0700    0.0000 C   0  0
   -4.2861   -1.6551    0.0000 N   0  0
   -4.9963   -2.8955    0.0000 C   0  0
   -5.5665   -3.2278    0.0000 F   0  0
   -4.4234   -3.2233    0.0000 F   0  0
   -4.9937   -3.5555    0.0000 F   0  0
   -1.4290   -1.6500    0.0000 C   0  0
   -0.7144   -2.0625    0.0000 C   0  0
    0.0000   -1.6500    0.0000 N   0  0
    0.0000   -0.8250    0.0000 C   0  0
   -3.5756    0.1338    0.0000 H   0  0
   -2.1456    0.1362    0.0000 H   0  0
  1  2  1  0
  2  3  2  0
  3  4  1  0
  4  5  2  0
  5  6  1  0
  5  7  1  0
  7  8  2  0
  8  9  1  0
  8 23  1  0
  9 10  1  0
  9 28  1  0
 10 11  2  0
 10 12  1  0
 12 13  1  0
 12 27  1  0
 13 14  2  0
 14 15  1  0
 15 16  2  0
 16 17  1  0
 17 18  2  0
 17 19  1  0
 18 13  1  0
 19 20  1  0
 19 21  1  0
 19 22  1  0
 23 24  2  0
 24 25  1  0
 25 26  2  0
 26  2  1  0
 26  7  1  0
M  END
> <CMPD_CHEMBLID>
CHEMBL2001987

> <STANDARD_TYPE>
Ki

> <RELATION>
>

> <STANDARD_VALUE>
3981.07

> <STANDARD_UNITS>
nM

> <Molecular_Weight>
368.26088

$$$$

  SciTegic11272012012D

 30 34  0  0  0  0            999 V2000
    2.1433    0.2500    0.0000 O   0  0
    2.1445   -0.4100    0.0000 C   0  0
    2.8602   -0.8213    0.0000 N   0  0
    3.5745   -0.4075    0.0000 C   0  0
    4.2904   -0.8175    0.0000 C   0  0
    5.0034   -0.4025    0.0000 N   0  0
    5.0006    0.4225    0.0000 C   0  0
    4.2847    0.8325    0.0000 C   0  0
    3.5717    0.4175    0.0000 N   0  0
    1.4302   -0.8237    0.0000 N   0  0
    0.7145   -0.4125    0.0000 C   0  0
    0.7145    0.4125    0.0000 C   0  0
    0.0000    0.8250    0.0000 C   0  0
   -0.7145    0.4125    0.0000 N   0  0
   -0.7145   -0.4125    0.0000 C   0  0
   -1.4290   -0.8250    0.0000 C   0  0
   -1.4290   -1.6500    0.0000 C   0  0
   -0.7145   -2.0625    0.0000 C   0  0
    0.0000   -1.6500    0.0000 C   0  0
    0.0000   -0.8250    0.0000 C   0  0
   -0.7145   -2.8880    0.0000 N   0  0
   -1.3812   -3.3619    0.0000 C   0  0
   -1.1250   -4.1461    0.0000 C   0  0
   -1.3786   -4.9300    0.0000 C   0  0
   -0.7104   -5.4138    0.0000 O   0  0
   -0.0438   -4.9279    0.0000 C   0  0
   -0.3000   -4.1448    0.0000 C   0  0
   -0.0463   -3.3598    0.0000 C   0  0
    1.4312   -1.3737    0.0000 H   0  0
    2.8612   -1.3713    0.0000 H   0  0
  1  2  2  0
  2  3  1  0
  2 10  1  0
  3  4  1  0
  3 30  1  0
  4  5  2  0
  5  6  1  0
  6  7  2  0
  7  8  1  0
  8  9  2  0
  9  4  1  0
 10 11  1  0
 10 29  1  0
 11 12  2  0
 12 13  1  0
 13 14  2  0
 14 15  1  0
 15 16  2  0
 16 17  1  0
 17 18  2  0
 18 19  1  0
 18 21  1  0
 19 20  2  0
 20 11  1  0
 20 15  1  0
 21 22  1  0
 22 23  1  0
 23 24  1  0
 24 25  1  0
 25 26  1  0
 26 27  1  0
 27 23  1  0
 27 28  1  0
 28 21  1  0
M  END
> <CMPD_CHEMBLID>
CHEMBL2002599

> <STANDARD_TYPE>
Ki

> <RELATION>
>

> <STANDARD_VALUE>
3981.07

> <STANDARD_UNITS>
nM

> <Molecular_Weight>
376.4118

$$$$

  SciTegic11272012012D

 22 25  0  0  0  0            999 V2000
    1.4276   -1.4867    0.0000 C   0  0
    1.4285   -0.8267    0.0000 O   0  0
    0.7145   -0.4125    0.0000 C   0  0
    0.7145    0.4125    0.0000 C   0  0
    0.0000    0.8250    0.0000 C   0  0
   -0.7145    0.4125    0.0000 C   0  0
   -0.7145   -0.4125    0.0000 C   0  0
    0.0000   -0.8250    0.0000 C   0  0
   -1.4987   -0.6674    0.0000 C   0  0
   -1.9836    0.0000    0.0000 C   0  0
   -1.4987    0.6674    0.0000 N   0  0
   -1.7026    1.2952    0.0000 C   0  0
   -1.7537   -1.4525    0.0000 C   0  0
   -2.5523   -1.6318    0.0000 C   0  0
   -2.6166   -2.4538    0.0000 C   0  0
   -3.2710   -2.9563    0.0000 N   0  0
   -3.1631   -3.7742    0.0000 C   0  0
   -2.4008   -4.0897    0.0000 C   0  0
   -1.7465   -3.5873    0.0000 N   0  0
   -1.8544   -2.7694    0.0000 C   0  0
   -1.3189   -2.1423    0.0000 N   0  0
   -0.7703   -2.1820    0.0000 H   0  0
  1  2  1  0
  2  3  1  0
  3  4  2  0
  4  5  1  0
  5  6  2  0
  6  7  1  0
  7  8  2  0
  7  9  1  0
  8  3  1  0
  9 10  2  0
  9 13  1  0
 10 11  1  0
 11  6  1  0
 11 12  1  0
 13 14  2  0
 14 15  1  0
 15 16  2  0
 16 17  1  0
 17 18  2  0
 18 19  1  0
 19 20  2  0
 20 15  1  0
 20 21  1  0
 21 13  1  0
 21 22  1  0
M  END
> <CMPD_CHEMBLID>
CHEMBL1233887

> <STANDARD_TYPE>
Ki

> <RELATION>
>

> <STANDARD_VALUE>
3981.07

> <STANDARD_UNITS>
nM

> <Molecular_Weight>
278.30856

$$$$

  SciTegic11272012012D

 26 28  0  0  0  0            999 V2000
    1.4276   -1.4867    0.0000 C   0  0
    1.4285   -0.8267    0.0000 O   0  0
    0.7144   -0.4125    0.0000 C   0  0
    0.7144    0.4125    0.0000 C   0  0
    0.0000    0.8250    0.0000 C   0  0
   -0.7144    0.4125    0.0000 C   0  0
   -0.7144   -0.4125    0.0000 C   0  0
    0.0000   -0.8250    0.0000 C   0  0
   -1.4285   -0.8267    0.0000 C   0  0
   -2.0006   -0.4977    0.0000 C   0  0
   -1.4273   -1.6521    0.0000 N   0  0
   -2.1413   -2.0663    0.0000 C   0  0
   -2.7135   -1.7373    0.0000 O   0  0
   -2.1402   -2.8918    0.0000 C   0  0
   -2.8532   -3.3068    0.0000 C   0  0
   -2.8503   -4.1318    0.0000 N   0  0
   -2.1344   -4.5418    0.0000 C   0  0
   -1.4214   -4.1269    0.0000 N   0  0
   -1.4242   -3.3019    0.0000 C   0  0
   -2.1316   -5.3673    0.0000 C   0  0
   -2.8439   -5.7834    0.0000 C   0  0
   -2.8398   -6.6084    0.0000 C   0  0
   -2.1232   -7.0173    0.0000 N   0  0
   -1.4109   -6.6012    0.0000 C   0  0
   -1.4150   -5.7762    0.0000 C   0  0
   -0.9505   -1.9263    0.0000 H   0  0
  1  2  1  0
  2  3  1  0
  3  4  2  0
  4  5  1  0
  5  6  2  0
  6  7  1  0
  7  8  2  0
  7  9  1  0
  8  3  1  0
  9 10  1  0
  9 11  1  0
 11 12  1  0
 11 26  1  0
 12 13  2  0
 12 14  1  0
 14 15  2  0
 15 16  1  0
 16 17  2  0
 17 18  1  0
 17 20  1  0
 18 19  2  0
 19 14  1  0
 20 21  2  0
 21 22  1  0
 22 23  2  0
 23 24  1  0
 24 25  2  0
 25 20  1  0
M  END
> <CMPD_CHEMBLID>
CHEMBL2003514

> <STANDARD_TYPE>
Ki

> <RELATION>
>

> <STANDARD_VALUE>
3981.07

> <STANDARD_UNITS>
nM

> <Molecular_Weight>
334.37182

$$$$

  SciTegic11272012012D

 25 27  0  0  0  0            999 V2000
    1.4276   -1.4867    0.0000 C   0  0
    1.4285   -0.8267    0.0000 O   0  0
    0.7144   -0.4125    0.0000 C   0  0
    0.7144    0.4125    0.0000 C   0  0
    0.0000    0.8250    0.0000 C   0  0
   -0.7144    0.4125    0.0000 C   0  0
   -0.7144   -0.4125    0.0000 C   0  0
   -1.4284   -0.8267    0.0000 C   0  0
   -1.4273   -1.6521    0.0000 N   0  0
   -2.1413   -2.0663    0.0000 C   0  0
   -2.7135   -1.7373    0.0000 O   0  0
   -2.1401   -2.8918    0.0000 C   0  0
   -2.8532   -3.3068    0.0000 C   0  0
   -2.8503   -4.1318    0.0000 N   0  0
   -2.1344   -4.5418    0.0000 C   0  0
   -1.4214   -4.1268    0.0000 N   0  0
   -1.4242   -3.3018    0.0000 C   0  0
   -2.1316   -5.3672    0.0000 C   0  0
   -2.8439   -5.7834    0.0000 C   0  0
   -2.8397   -6.6084    0.0000 C   0  0
   -2.1232   -7.0172    0.0000 N   0  0
   -1.4108   -6.6011    0.0000 C   0  0
   -1.4150   -5.7762    0.0000 C   0  0
    0.0000   -0.8250    0.0000 C   0  0
   -0.9505   -1.9263    0.0000 H   0  0
  1  2  1  0
  2  3  1  0
  3  4  2  0
  4  5  1  0
  5  6  2  0
  6  7  1  0
  7  8  1  0
  7 24  2  0
  8  9  1  0
  9 10  1  0
  9 25  1  0
 10 11  2  0
 10 12  1  0
 12 13  2  0
 13 14  1  0
 14 15  2  0
 15 16  1  0
 15 18  1  0
 16 17  2  0
 17 12  1  0
 18 19  2  0
 19 20  1  0
 20 21  2  0
 21 22  1  0
 22 23  2  0
 23 18  1  0
 24  3  1  0
M  END
> <CMPD_CHEMBLID>
CHEMBL2004159

> <STANDARD_TYPE>
Ki

> <RELATION>
>

> <STANDARD_VALUE>
3981.07

> <STANDARD_UNITS>
nM

> <Molecular_Weight>
320.34524

$$$$

  SciTegic11272012012D

 21 23  0  0  0  0            999 V2000
    0.2014   -2.2716    0.0000 N   0  0
    0.7144   -1.6250    0.0000 C   0  0
    1.5302   -1.7479    0.0000 N   0  0
    2.0446   -1.1029    0.0000 C   0  0
    1.7432   -0.3349    0.0000 N   0  0
    0.9269   -0.2115    0.0000 C   0  0
    0.7433    0.5928    0.0000 N   0  0
    0.0000    0.9507    0.0000 C   0  0
   -0.7433    0.5927    0.0000 C   0  0
   -0.9269   -0.2116    0.0000 C   0  0
   -0.4125   -0.8566    0.0000 N   0  0
    0.4125   -0.8566    0.0000 C   0  0
   -1.7316   -0.3952    0.0000 C   0  0
   -2.2630    0.2386    0.0000 C   0  0
   -3.0756    0.0965    0.0000 C   0  0
   -3.3588   -0.6784    0.0000 C   0  0
   -2.8293   -1.3111    0.0000 C   0  0
   -2.0167   -1.1689    0.0000 C   0  0
    1.1733    0.9357    0.0000 H   0  0
    0.4033   -2.7832    0.0000 H   0  0
   -0.3426   -2.1908    0.0000 H   0  0
  1  2  1  0
  1 20  1  0
  1 21  1  0
  2  3  2  0
  3  4  1  0
  4  5  2  0
  5  6  1  0
  6  7  1  0
  7  8  1  0
  7 19  1  0
  8  9  1  0
  9 10  1  0
 10 11  2  0
 10 13  1  0
 11 12  1  0
 12  2  1  0
 12  6  2  0
 13 14  2  0
 14 15  1  0
 15 16  2  0
 16 17  1  0
 17 18  2  0
 18 13  1  0
M  END
> <CMPD_CHEMBLID>
CHEMBL262623

> <STANDARD_TYPE>
Ki

> <RELATION>
=

> <STANDARD_VALUE>
3981.07

> <STANDARD_UNITS>
nM

> <Molecular_Weight>
239.27582

$$$$

  SciTegic11272012012D

 31 33  0  0  0  0            999 V2000
    1.4276   -1.4867    0.0000 C   0  0
    1.4285   -0.8267    0.0000 O   0  0
    0.7144   -0.4125    0.0000 C   0  0
    0.7144    0.4125    0.0000 C   0  0
    0.0000    0.8250    0.0000 C   0  0
   -0.7144    0.4125    0.0000 C   0  0
   -1.4302    0.8237    0.0000 C   0  0
   -2.1444    0.4100    0.0000 O   0  0
   -2.8602    0.8213    0.0000 C   0  0
   -2.8602    1.6463    0.0000 C   0  0
   -3.5747    2.0588    0.0000 C   0  0
   -4.2892    1.6463    0.0000 C   0  0
   -5.0049    2.0575    0.0000 C   0  0
   -5.7192    1.6437    0.0000 C   0  0
   -5.7163    0.8187    0.0000 C   0  0
   -6.4294    0.4037    0.0000 N   0  0
   -7.1453    0.8137    0.0000 C   0  0
   -7.8595    0.4000    0.0000 N   0  0
   -7.1481    1.6387    0.0000 N   0  0
   -6.4351    2.0537    0.0000 C   0  0
   -6.4397    2.8791    0.0000 N   0  0
   -4.2892    0.8213    0.0000 C   0  0
   -3.5747    0.4088    0.0000 C   0  0
   -3.5764   -0.4167    0.0000 O   0  0
   -4.1484   -0.7459    0.0000 C   0  0
   -0.7144   -0.4125    0.0000 C   0  0
    0.0000   -0.8250    0.0000 C   0  0
   -6.9174    3.1518    0.0000 H   0  0
   -5.9648    3.1566    0.0000 H   0  0
   -8.3364    0.6740    0.0000 H   0  0
   -7.8585   -0.1500    0.0000 H   0  0
  1  2  1  0
  2  3  1  0
  3  4  2  0
  4  5  1  0
  5  6  2  0
  6  7  1  0
  6 26  1  0
  7  8  1  0
  8  9  1  0
  9 10  2  0
 10 11  1  0
 11 12  2  0
 12 13  1  0
 12 22  1  0
 13 14  1  0
 14 15  2  0
 15 16  1  0
 16 17  2  0
 17 18  1  0
 17 19  1  0
 18 30  1  0
 18 31  1  0
 19 20  2  0
 20 14  1  0
 20 21  1  0
 21 28  1  0
 21 29  1  0
 22 23  2  0
 23  9  1  0
 23 24  1  0
 24 25  1  0
 26 27  2  0
 27  3  1  0
M  END
> <CMPD_CHEMBLID>
CHEMBL261849

> <STANDARD_TYPE>
Ki

> <RELATION>
>

> <STANDARD_VALUE>
3981.07

> <STANDARD_UNITS>
nM

> <Molecular_Weight>
366.41368

$$$$

  SciTegic11272012012D

 25 27  0  0  0  0            999 V2000
    1.4276   -1.4867    0.0000 C   0  0
    1.4285   -0.8267    0.0000 O   0  0
    0.7144   -0.4125    0.0000 C   0  0
    0.7144    0.4125    0.0000 C   0  0
    0.0000    0.8250    0.0000 C   0  0
   -0.7144    0.4125    0.0000 C   0  0
   -0.7144   -0.4125    0.0000 C   0  0
   -1.4285   -0.8267    0.0000 C   0  0
   -1.4273   -1.6521    0.0000 N   0  0
   -2.1413   -2.0663    0.0000 C   0  0
   -2.7135   -1.7373    0.0000 O   0  0
   -2.1401   -2.8918    0.0000 C   0  0
   -2.8532   -3.3068    0.0000 C   0  0
   -2.8503   -4.1318    0.0000 C   0  0
   -2.1344   -4.5418    0.0000 C   0  0
   -1.4214   -4.1268    0.0000 C   0  0
   -1.4242   -3.3019    0.0000 C   0  0
   -2.1316   -5.3673    0.0000 C   0  0
   -2.8439   -5.7834    0.0000 C   0  0
   -2.8397   -6.6084    0.0000 C   0  0
   -2.1232   -7.0172    0.0000 N   0  0
   -1.4109   -6.6012    0.0000 C   0  0
   -1.4150   -5.7762    0.0000 C   0  0
    0.0000   -0.8250    0.0000 C   0  0
   -0.9505   -1.9263    0.0000 H   0  0
  1  2  1  0
  2  3  1  0
  3  4  2  0
  4  5  1  0
  5  6  2  0
  6  7  1  0
  7  8  1  0
  7 24  2  0
  8  9  1  0
  9 10  1  0
  9 25  1  0
 10 11  2  0
 10 12  1  0
 12 13  2  0
 13 14  1  0
 14 15  2  0
 15 16  1  0
 15 18  1  0
 16 17  2  0
 17 12  1  0
 18 19  2  0
 19 20  1  0
 20 21  2  0
 21 22  1  0
 22 23  2  0
 23 18  1  0
 24  3  1  0
M  END
> <CMPD_CHEMBLID>
CHEMBL2006299

> <STANDARD_TYPE>
Ki

> <RELATION>
>

> <STANDARD_VALUE>
3981.07

> <STANDARD_UNITS>
nM

> <Molecular_Weight>
318.36912

$$$$

  SciTegic11272012012D

 40 43  0  0  0  0            999 V2000
    4.3969    1.8683    0.0000 C   0  0
    4.7864    1.3355    0.0000 C   0  0
    5.4425    1.4066    0.0000 C   0  0
    5.0530    1.9392    0.0000 C   0  0
    4.4538    0.5816    0.0000 C   0  0
    3.6474    0.4072    0.0000 C   0  0
    3.5744   -0.4075    0.0000 C   0  0
    2.8602   -0.8213    0.0000 N   0  0
    2.1444   -0.4100    0.0000 C   0  0
    2.1433    0.2500    0.0000 O   0  0
    1.4302   -0.8237    0.0000 N   0  0
    0.7144   -0.4125    0.0000 C   0  0
    0.7144    0.4125    0.0000 C   0  0
    0.0000    0.8250    0.0000 C   0  0
   -0.7144    0.4125    0.0000 C   0  0
   -0.7144   -0.4125    0.0000 C   0  0
   -1.4290   -0.8250    0.0000 C   0  0
   -1.4290   -1.6500    0.0000 C   0  0
   -0.7144   -2.0625    0.0000 C   0  0
    0.0000   -1.6500    0.0000 C   0  0
    0.0000   -0.8250    0.0000 C   0  0
    4.3189   -0.7465    0.0000 N   0  0
    4.8688   -0.1315    0.0000 N   0  0
    4.4885   -1.5543    0.0000 C   0  0
    3.9213   -2.1494    0.0000 C   0  0
    4.1544   -2.9408    0.0000 C   0  0
    4.9564   -3.1346    0.0000 C   0  0
    5.5251   -2.5370    0.0000 C   0  0
    5.2920   -1.7456    0.0000 C   0  0
    6.3279   -2.7293    0.0000 C   0  0
    6.5155   -3.3621    0.0000 O   0  0
    6.8962   -2.1306    0.0000 N   0  0
    7.6989   -2.3229    0.0000 C   0  0
    8.2672   -1.7241    0.0000 C   0  0
    9.0699   -1.9164    0.0000 C   0  0
    9.6382   -1.3177    0.0000 O   0  0
   10.1731   -1.4458    0.0000 H   0  0
    6.7399   -1.6032    0.0000 H   0  0
    1.4312   -1.3737    0.0000 H   0  0
    2.8612   -1.3713    0.0000 H   0  0
  1  2  1  0
  2  3  1  0
  2  4  1  0
  2  5  1  0
  5  6  1  0
  6  7  2  0
  7  8  1  0
  7 22  1  0
  8  9  1  0
  8 40  1  0
  9 10  2  0
  9 11  1  0
 11 12  1  0
 11 39  1  0
 12 13  2  0
 13 14  1  0
 14 15  2  0
 15 16  1  0
 16 17  2  0
 17 18  1  0
 18 19  2  0
 19 20  1  0
 20 21  2  0
 21 12  1  0
 21 16  1  0
 22 23  1  0
 22 24  1  0
 23  5  2  0
 24 25  2  0
 25 26  1  0
 26 27  2  0
 27 28  1  0
 28 29  2  0
 28 30  1  0
 29 24  1  0
 30 31  2  0
 30 32  1  0
 32 33  1  0
 32 38  1  0
 33 34  1  0
 34 35  1  0
 35 36  1  0
 36 37  1  0
M  END
> <CMPD_CHEMBLID>
CHEMBL2007073

> <STANDARD_TYPE>
Ki

> <RELATION>
>

> <STANDARD_VALUE>
3981.07

> <STANDARD_UNITS>
nM

> <Molecular_Weight>
485.57744

$$$$

  SciTegic11272012012D

 24 26  0  0  0  0            999 V2000
    0.8275   -4.5377    0.0000 N   0  0
    1.2943   -3.8569    0.0000 C   0  0
    2.1170   -3.9190    0.0000 N   0  0
    2.5821   -3.2376    0.0000 C   0  0
    2.2245   -2.4941    0.0000 C   0  0
    1.4045   -2.4327    0.0000 C   0  0
    0.9367   -3.1134    0.0000 N   0  0
    0.9918   -1.7178    0.0000 C   0  0
    1.3273   -0.9642    0.0000 C   0  0
    0.7145   -0.4125    0.0000 C   0  0
    0.7145    0.4125    0.0000 C   0  0
    1.2861    0.7425    0.0000 O   0  0
    0.0000    0.8250    0.0000 N   0  0
   -0.7145    0.4125    0.0000 C   0  0
   -0.7145   -0.4125    0.0000 C   0  0
   -1.4302   -0.8238    0.0000 C   0  0
   -2.1445   -0.4100    0.0000 C   0  0
   -2.7168   -0.7389    0.0000 F   0  0
    0.0000   -0.8250    0.0000 C   0  0
    0.1713   -1.6316    0.0000 N   0  0
   -0.1967   -2.0403    0.0000 H   0  0
    0.0000    1.3750    0.0000 H   0  0
    0.2791   -4.4955    0.0000 H   0  0
    1.0650   -5.0338    0.0000 H   0  0
  1  2  1  0
  1 23  1  0
  1 24  1  0
  2  3  2  0
  3  4  1  0
  4  5  2  0
  5  6  1  0
  6  7  2  0
  6  8  1  0
  7  2  1  0
  8  9  2  0
  9 10  1  0
 10 11  1  0
 11 12  2  0
 11 13  1  0
 13 14  1  0
 13 22  1  0
 14 15  1  0
 15 16  1  0
 15 19  1  0
 16 17  1  0
 17 18  1  0
 19 10  2  0
 19 20  1  0
 20  8  1  0
 20 21  1  0
M  END
> <CMPD_CHEMBLID>
CHEMBL524266

> <STANDARD_TYPE>
IC50

> <RELATION>
>

> <STANDARD_VALUE>
4000

> <STANDARD_UNITS>
nM

> <Molecular_Weight>
275.28156

$$$$

  SciTegic11272012012D

 44 45  0  0  0  0            999 V2000
    1.5679   -3.2207    0.0000 C   0  0
    2.1401   -2.8917    0.0000 N   0  0
    2.1412   -2.0663    0.0000 C   0  0
    1.4273   -1.6521    0.0000 C   0  0
    1.4285   -0.8267    0.0000 C   0  0
    0.7144   -0.4125    0.0000 C   0  0
    0.7144    0.4125    0.0000 C   0  0
    0.0000    0.8250    0.0000 C   0  0
   -0.7144    0.4125    0.0000 C   0  0
   -0.7144   -0.4125    0.0000 C   0  0
    0.0000   -0.8250    0.0000 C   0  0
    2.8541   -3.3059    0.0000 C   0  0
    3.4262   -2.9769    0.0000 O   0  0
    2.8529   -4.1313    0.0000 C   0  0
    2.1382   -4.5443    0.0000 C   0  0
    2.1379   -5.3697    0.0000 C   0  0
    1.4232   -5.7826    0.0000 C   0  0
    0.8516   -5.4526    0.0000 O   0  0
    1.4230   -6.6080    0.0000 O   0  0
    3.5669   -4.5455    0.0000 N   0  0
    3.5657   -5.3709    0.0000 C   0  0
    2.9936   -5.6999    0.0000 O   0  0
    4.2797   -5.7851    0.0000 C   0  0
    4.2785   -6.6105    0.0000 C   0  0
    4.9925   -7.0247    0.0000 C   0  0
    4.9926   -7.8496    0.0000 C   0  0
    5.7070   -8.2622    0.0000 C   0  0
    6.4215   -7.8497    0.0000 C   0  0
    7.1371   -8.2610    0.0000 O   0  0
    7.8514   -7.8472    0.0000 P   0  0
    7.8503   -7.1873    0.0000 O   0  0
    8.5670   -8.2585    0.0000 O   0  0
    7.1225   -7.4268    0.0000 O   0  0
    6.4215   -7.0247    0.0000 C   0  0
    5.7070   -6.6122    0.0000 C   0  0
    4.9961   -5.3751    0.0000 N   0  0
    4.9998   -4.5497    0.0000 C   0  0
    5.5726   -4.2219    0.0000 O   0  0
    4.4295   -4.2174    0.0000 C   0  0
    5.4713   -5.6520    0.0000 H   0  0
    7.1220   -6.8768    0.0000 H   0  0
    9.0429   -7.9829    0.0000 H   0  0
    4.0437   -4.2713    0.0000 H   0  0
    0.9467   -6.8832    0.0000 H   0  0
  1  2  1  0
  2  3  1  0
  2 12  1  0
  3  4  1  0
  4  5  1  0
  5  6  1  0
  6  7  1  0
  7  8  1  0
  8  9  1  0
  9 10  1  0
 10 11  1  0
 11  6  1  0
 12 13  2  0
 12 14  1  0
 14 15  1  0
 14 20  1  0
 15 16  1  0
 16 17  1  0
 17 18  2  0
 17 19  1  0
 19 44  1  0
 20 21  1  0
 20 43  1  0
 21 22  2  0
 21 23  1  0
 23 24  1  0
 23 36  1  0
 24 25  1  0
 25 26  2  0
 26 27  1  0
 27 28  2  0
 28 29  1  0
 28 34  1  0
 29 30  1  0
 30 31  2  0
 30 32  1  0
 30 33  1  0
 32 42  1  0
 33 41  1  0
 34 35  2  0
 35 25  1  0
 36 37  1  0
 36 40  1  0
 37 38  2  0
 37 39  1  0
M  END
> <CMPD_CHEMBLID>
CHEMBL13462

> <STANDARD_TYPE>
IC50

> <RELATION>
=

> <STANDARD_VALUE>
4000

> <STANDARD_UNITS>
nM

> <Molecular_Weight>
569.58426

$$$$

  SciTegic11272012012D

 27 30  0  0  0  0            999 V2000
   -2.0134   -4.5941    0.0000 C   0  0
   -2.1705   -3.9530    0.0000 O   0  0
   -1.5746   -3.3817    0.0000 C   0  0
   -0.7828   -3.6136    0.0000 C   0  0
   -0.1861   -3.0438    0.0000 C   0  0
   -0.3810   -2.2450    0.0000 C   0  0
   -1.1730   -2.0103    0.0000 C   0  0
   -1.7697   -2.5801    0.0000 C   0  0
   -2.5614   -2.3465    0.0000 O   0  0
    0.1713   -1.6316    0.0000 C   0  0
    0.9918   -1.7179    0.0000 N   0  0
    1.3273   -0.9642    0.0000 N   0  0
    2.1348   -0.7925    0.0000 C   0  0
    2.8320   -1.1903    0.0000 C   0  0
    3.2226   -0.4636    0.0000 N   0  0
    2.4960   -0.0729    0.0000 C   0  0
    0.7145   -0.4125    0.0000 C   0  0
    0.7145    0.4125    0.0000 N   0  0
    0.0000    0.8250    0.0000 C   0  0
   -0.7145    0.4125    0.0000 N   0  0
   -0.7145   -0.4125    0.0000 C   0  0
   -1.4302   -0.8238    0.0000 N   0  0
    0.0000   -0.8250    0.0000 C   0  0
   -1.9062   -0.5481    0.0000 H   0  0
   -1.4312   -1.3738    0.0000 H   0  0
    3.7493   -0.3053    0.0000 H   0  0
   -2.6907   -1.8119    0.0000 H   0  0
  1  2  1  0
  2  3  1  0
  3  4  2  0
  4  5  1  0
  5  6  2  0
  6  7  1  0
  6 10  1  0
  7  8  2  0
  8  3  1  0
  8  9  1  0
  9 27  1  0
 10 11  2  0
 11 12  1  0
 12 13  1  0
 12 17  1  0
 13 14  1  0
 14 15  1  0
 15 16  1  0
 15 26  1  0
 16 13  1  0
 17 18  2  0
 18 19  1  0
 19 20  2  0
 20 21  1  0
 21 22  1  0
 21 23  2  0
 22 24  1  0
 22 25  1  0
 23 10  1  0
 23 17  1  0
M  END
> <CMPD_CHEMBLID>
CHEMBL1242203

> <STANDARD_TYPE>
IC50

> <RELATION>
=

> <STANDARD_VALUE>
4000

> <STANDARD_UNITS>
nM

> <Molecular_Weight>
312.32654

$$$$

  SciTegic11272012012D

 39 41  0  0  0  0            999 V2000
    2.1444   -0.4100    0.0000 O   0  0
    1.4302   -0.8237    0.0000 C   0  0
    1.4313   -1.4837    0.0000 O   0  0
    0.7144   -0.4125    0.0000 C   0  0
    0.7144    0.4125    0.0000 C   0  0
    0.0000    0.8250    0.0000 C   0  0
    0.0017    1.6504    0.0000 C   0  0
    0.7171    2.0622    0.0000 N   0  0
    0.7188    2.8876    0.0000 N   0  0
    1.4343    3.2993    0.0000 C   0  0
    2.0053    2.9683    0.0000 O   0  0
    1.4360    4.1248    0.0000 C   0  0
    2.1514    4.5365    0.0000 S   0  0
    2.1504    3.8765    0.0000 O   0  0
    2.7224    4.2055    0.0000 O   0  0
    2.1531    5.3619    0.0000 C   0  0
    2.8684    5.7730    0.0000 C   0  0
    2.8701    6.5980    0.0000 C   0  0
    2.1565    7.0119    0.0000 C   0  0
    2.1579    7.6719    0.0000 Cl  0  0
    1.4412    6.6009    0.0000 C   0  0
    1.4395    5.7759    0.0000 C   0  0
   -0.7144    0.4125    0.0000 C   0  0
   -1.2861    0.7425    0.0000 F   0  0
   -0.7144   -0.4125    0.0000 C   0  0
   -1.2861   -0.7425    0.0000 F   0  0
    0.0000   -0.8250    0.0000 C   0  0
    0.0017   -1.6504    0.0000 N   0  0
   -0.7120   -2.0651    0.0000 C   0  0
   -1.4269   -1.6531    0.0000 C   0  0
   -2.1410   -2.0661    0.0000 C   0  0
   -2.1405   -2.8911    0.0000 C   0  0
   -2.7118   -3.2215    0.0000 I   0  0
   -1.4258   -3.3031    0.0000 C   0  0
   -0.7115   -2.8901    0.0000 C   0  0
   -0.1398   -3.2198    0.0000 F   0  0
    0.4787   -1.9243    0.0000 H   0  0
    0.2430    3.1634    0.0000 H   0  0
    2.6214   -0.6840    0.0000 H   0  0
  1  2  1  0
  1 39  1  0
  2  3  2  0
  2  4  1  0
  4  5  2  0
  5  6  1  0
  6  7  1  0
  6 23  2  0
  7  8  2  0
  8  9  1  0
  9 10  1  0
  9 38  1  0
 10 11  2  0
 10 12  1  0
 12 13  1  0
 13 14  2  0
 13 15  2  0
 13 16  1  0
 16 17  2  0
 17 18  1  0
 18 19  2  0
 19 20  1  0
 19 21  1  0
 21 22  2  0
 22 16  1  0
 23 24  1  0
 23 25  1  0
 25 26  1  0
 25 27  2  0
 27  4  1  0
 27 28  1  0
 28 29  1  0
 28 37  1  0
 29 30  2  0
 30 31  1  0
 31 32  2  0
 32 33  1  0
 32 34  1  0
 34 35  2  0
 35 29  1  0
 35 36  1  0
M  END
> <CMPD_CHEMBLID>
CHEMBL481969

> <STANDARD_TYPE>
IC50

> <RELATION>
=

> <STANDARD_VALUE>
4000

> <STANDARD_UNITS>
nM

> <Molecular_Weight>
651.78134

$$$$

  SciTegic11272012012D

 25 27  0  0  0  0            999 V2000
   -2.0134   -4.5941    0.0000 C   0  0
   -2.1705   -3.9530    0.0000 O   0  0
   -1.5746   -3.3817    0.0000 C   0  0
   -0.7828   -3.6136    0.0000 C   0  0
   -0.1861   -3.0438    0.0000 C   0  0
   -0.3810   -2.2450    0.0000 C   0  0
   -1.1730   -2.0103    0.0000 C   0  0
   -1.7697   -2.5801    0.0000 C   0  0
   -2.5614   -2.3465    0.0000 O   0  0
   -2.7166   -1.7050    0.0000 C   0  0
    0.1713   -1.6316    0.0000 C   0  0
    0.9918   -1.7179    0.0000 N   0  0
    1.3273   -0.9642    0.0000 N   0  0
    2.1337   -0.7943    0.0000 C   0  0
    2.5748   -1.2854    0.0000 C   0  0
    2.3387   -0.1669    0.0000 C   0  0
    0.7145   -0.4125    0.0000 C   0  0
    0.7145    0.4125    0.0000 N   0  0
    0.0000    0.8250    0.0000 C   0  0
   -0.7145    0.4125    0.0000 N   0  0
   -0.7145   -0.4125    0.0000 C   0  0
   -1.4302   -0.8238    0.0000 N   0  0
    0.0000   -0.8250    0.0000 C   0  0
   -1.9062   -0.5481    0.0000 H   0  0
   -1.4312   -1.3738    0.0000 H   0  0
  1  2  1  0
  2  3  1  0
  3  4  2  0
  4  5  1  0
  5  6  2  0
  6  7  1  0
  6 11  1  0
  7  8  2  0
  8  3  1  0
  8  9  1  0
  9 10  1  0
 11 12  2  0
 12 13  1  0
 13 14  1  0
 13 17  1  0
 14 15  1  0
 14 16  1  0
 17 18  2  0
 18 19  1  0
 19 20  2  0
 20 21  1  0
 21 22  1  0
 21 23  2  0
 22 24  1  0
 22 25  1  0
 23 11  1  0
 23 17  1  0
M  END
> <CMPD_CHEMBLID>
CHEMBL1242290

> <STANDARD_TYPE>
IC50

> <RELATION>
=

> <STANDARD_VALUE>
4100

> <STANDARD_UNITS>
nM

> <Molecular_Weight>
313.35436

$$$$

  SciTegic11272012012D

 26 29  0  0  0  0            999 V2000
    2.2541   -3.0993    0.0000 C   0  0
    2.6435   -2.5664    0.0000 C   0  0
    3.2996   -2.6374    0.0000 C   0  0
    2.3108   -1.8125    0.0000 N   0  0
    1.5040   -1.6398    0.0000 N   0  0
    1.4293   -0.8252    0.0000 C   0  0
    0.7145   -0.4125    0.0000 C   0  0
    0.7145    0.4125    0.0000 C   0  0
    0.0000    0.8250    0.0000 C   0  0
   -0.7145    0.4125    0.0000 C   0  0
   -1.4290    0.8250    0.0000 C   0  0
   -2.1435    0.4125    0.0000 C   0  0
   -2.1435   -0.4125    0.0000 C   0  0
   -2.7150   -0.7425    0.0000 C   0  0
   -1.4290   -0.8250    0.0000 N   0  0
   -0.7145   -0.4125    0.0000 C   0  0
    0.0000   -0.8250    0.0000 C   0  0
    2.1728   -0.4850    0.0000 C   0  0
    2.4289    0.2993    0.0000 C   0  0
    1.8786    0.9146    0.0000 N   0  0
    3.2361    0.4697    0.0000 N   0  0
    3.7873   -0.1443    0.0000 C   0  0
    3.5312   -0.9285    0.0000 N   0  0
    2.7239   -1.0989    0.0000 C   0  0
    2.0501    1.4372    0.0000 H   0  0
    1.3403    0.8020    0.0000 H   0  0
  1  2  1  0
  2  3  1  0
  2  4  1  0
  4  5  1  0
  5  6  2  0
  6  7  1  0
  6 18  1  0
  7  8  2  0
  8  9  1  0
  9 10  2  0
 10 11  1  0
 11 12  2  0
 12 13  1  0
 13 14  1  0
 13 15  2  0
 15 16  1  0
 16 10  1  0
 16 17  2  0
 17  7  1  0
 18 19  2  0
 19 20  1  0
 19 21  1  0
 20 25  1  0
 20 26  1  0
 21 22  2  0
 22 23  1  0
 23 24  2  0
 24  4  1  0
 24 18  1  0
M  END
> <CMPD_CHEMBLID>
CHEMBL1242209

> <STANDARD_TYPE>
IC50

> <RELATION>
=

> <STANDARD_VALUE>
4300

> <STANDARD_UNITS>
nM

> <Molecular_Weight>
318.37572

$$$$

  SciTegic11272012012D

 33 36  0  0  0  0            999 V2000
    1.4302   -0.8237    0.0000 O   0  0
    0.7144   -0.4125    0.0000 C   0  0
    0.7144    0.4125    0.0000 C   0  0
    0.0000    0.8250    0.0000 C   0  0
   -0.0017    1.6504    0.0000 O   0  0
   -0.7171    2.0622    0.0000 C   0  0
   -0.7188    2.8876    0.0000 C   0  0
   -0.1478    3.2186    0.0000 O   0  0
   -1.4343    3.2993    0.0000 N   0  0
   -1.4360    4.1248    0.0000 C   0  0
   -2.1515    4.5365    0.0000 C   0  0
   -2.1532    5.3620    0.0000 N   0  0
   -2.8676    5.7744    0.0000 C   0  0
   -2.8676    6.5995    0.0000 C   0  0
   -2.1532    7.0120    0.0000 O   0  0
   -1.4387    6.5995    0.0000 C   0  0
   -1.4387    5.7745    0.0000 C   0  0
   -0.7144    0.4125    0.0000 C   0  0
   -0.7144   -0.4125    0.0000 C   0  0
   -1.4290   -0.8250    0.0000 O   0  0
   -1.4290   -1.6500    0.0000 C   0  0
   -0.7144   -2.0625    0.0000 C   0  0
    0.0000   -1.6500    0.0000 C   0  0
    0.5716   -1.9800    0.0000 O   0  0
    0.0000   -0.8250    0.0000 C   0  0
   -2.1437   -2.0627    0.0000 C   0  0
   -2.8590   -1.6514    0.0000 C   0  0
   -3.5727   -2.0650    0.0000 C   0  0
   -3.5714   -2.8900    0.0000 C   0  0
   -2.8563   -3.3014    0.0000 C   0  0
   -2.1425   -2.8878    0.0000 C   0  0
   -1.9101    3.0235    0.0000 H   0  0
    1.9061   -0.5481    0.0000 H   0  0
  1  2  1  0
  1 33  1  0
  2  3  2  0
  3  4  1  0
  4  5  1  0
  4 18  2  0
  5  6  1  0
  6  7  1  0
  7  8  2  0
  7  9  1  0
  9 10  1  0
  9 32  1  0
 10 11  1  0
 11 12  1  0
 12 13  1  0
 13 14  1  0
 14 15  1  0
 15 16  1  0
 16 17  1  0
 17 12  1  0
 18 19  1  0
 19 20  1  0
 20 21  1  0
 21 22  2  0
 21 26  1  0
 22 23  1  0
 23 24  2  0
 23 25  1  0
 25  2  1  0
 25 19  2  0
 26 27  2  0
 27 28  1  0
 28 29  2  0
 29 30  1  0
 30 31  2  0
 31 26  1  0
M  END
> <CMPD_CHEMBLID>
CHEMBL2408506

> <STANDARD_TYPE>
IC50

> <RELATION>
=

> <STANDARD_VALUE>
4310

> <STANDARD_UNITS>
nM

> <Molecular_Weight>
424.44646

$$$$

  SciTegic11272012012D

 34 37  0  0  0  0            999 V2000
    4.8547   -2.9760    0.0000 C   0  0
    4.2832   -3.3060    0.0000 C   0  0
    4.2831   -4.1310    0.0000 C   0  0
    3.5687   -4.5435    0.0000 C   0  0
    2.8542   -4.1310    0.0000 C   0  0
    2.8542   -3.3060    0.0000 C   0  0
    2.1402   -2.8918    0.0000 N   0  0
    2.1413   -2.0663    0.0000 C   0  0
    2.7135   -1.7373    0.0000 O   0  0
    1.4273   -1.6521    0.0000 C   0  0
    1.4285   -0.8267    0.0000 O   0  0
    0.7144   -0.4125    0.0000 C   0  0
    0.7144    0.4125    0.0000 C   0  0
    0.0000    0.8250    0.0000 C   0  0
    0.0017    1.6504    0.0000 O   0  0
   -0.7144    0.4125    0.0000 C   0  0
   -1.4290    0.8250    0.0000 C   0  0
   -1.4290    1.4850    0.0000 O   0  0
   -2.1434    0.4125    0.0000 C   0  0
   -2.1434   -0.4125    0.0000 C   0  0
   -1.4290   -0.8250    0.0000 O   0  0
   -0.7144   -0.4125    0.0000 C   0  0
    0.0000   -0.8250    0.0000 C   0  0
   -2.8582   -0.8252    0.0000 C   0  0
   -2.8570   -1.6503    0.0000 C   0  0
   -3.5708   -2.0639    0.0000 C   0  0
   -3.5697   -2.7239    0.0000 F   0  0
   -4.2859   -1.6525    0.0000 C   0  0
   -4.2872   -0.8275    0.0000 C   0  0
   -3.5734   -0.4139    0.0000 C   0  0
   -3.5745    0.2461    0.0000 F   0  0
    3.5687   -2.8935    0.0000 N   0  0
    0.4784    1.9248    0.0000 H   0  0
    1.6634   -3.1660    0.0000 H   0  0
  1  2  1  0
  2  3  2  0
  3  4  1  0
  4  5  2  0
  5  6  1  0
  6  7  1  0
  6 32  2  0
  7  8  1  0
  7 34  1  0
  8  9  2  0
  8 10  1  0
 10 11  1  0
 11 12  1  0
 12 13  2  0
 13 14  1  0
 14 15  1  0
 14 16  2  0
 15 33  1  0
 16 17  1  0
 17 18  2  0
 17 19  1  0
 19 20  2  0
 20 21  1  0
 20 24  1  0
 21 22  1  0
 22 16  1  0
 22 23  2  0
 23 12  1  0
 24 25  2  0
 25 26  1  0
 26 27  1  0
 26 28  2  0
 28 29  1  0
 29 30  2  0
 30 24  1  0
 30 31  1  0
 32  2  1  0
M  END
> <CMPD_CHEMBLID>
CHEMBL2408508

> <STANDARD_TYPE>
IC50

> <RELATION>
=

> <STANDARD_VALUE>
4310

> <STANDARD_UNITS>
nM

> <Molecular_Weight>
438.38035

$$$$

  SciTegic11272012012D

 26 28  0  0  0  0            999 V2000
   -2.0134   -4.5941    0.0000 C   0  0
   -2.1705   -3.9531    0.0000 O   0  0
   -1.5746   -3.3818    0.0000 C   0  0
   -0.7828   -3.6136    0.0000 C   0  0
   -0.1861   -3.0438    0.0000 C   0  0
   -0.3811   -2.2450    0.0000 C   0  0
   -1.1730   -2.0104    0.0000 C   0  0
   -1.7697   -2.5801    0.0000 C   0  0
   -2.5614   -2.3465    0.0000 O   0  0
   -2.7166   -1.7050    0.0000 C   0  0
    0.1713   -1.6316    0.0000 C   0  0
    0.9918   -1.7179    0.0000 N   0  0
    1.3274   -0.9642    0.0000 N   0  0
    0.7145   -0.4125    0.0000 C   0  0
    0.7145    0.4125    0.0000 N   0  0
    0.0000    0.8250    0.0000 C   0  0
   -0.7145    0.4125    0.0000 N   0  0
   -0.7145   -0.4125    0.0000 C   0  0
   -1.4302   -0.8238    0.0000 N   0  0
    0.0000   -0.8250    0.0000 C   0  0
    2.1334   -0.7927    0.0000 C   0  0
    2.5754   -1.2828    0.0000 C   0  0
    2.3370   -0.1648    0.0000 C   0  0
    2.7789   -0.6550    0.0000 C   0  0
   -1.9062   -0.5481    0.0000 H   0  0
   -1.4312   -1.3738    0.0000 H   0  0
  1  2  1  0
  2  3  1  0
  3  4  2  0
  4  5  1  0
  5  6  2  0
  6  7  1  0
  6 11  1  0
  7  8  2  0
  8  3  1  0
  8  9  1  0
  9 10  1  0
 11 12  2  0
 12 13  1  0
 13 14  1  0
 13 21  1  0
 14 15  2  0
 15 16  1  0
 16 17  2  0
 17 18  1  0
 18 19  1  0
 18 20  2  0
 19 25  1  0
 19 26  1  0
 20 11  1  0
 20 14  1  0
 21 22  1  0
 21 23  1  0
 21 24  1  0
M  END
> <CMPD_CHEMBLID>
CHEMBL1242379

> <STANDARD_TYPE>
IC50

> <RELATION>
=

> <STANDARD_VALUE>
4400

> <STANDARD_UNITS>
nM

> <Molecular_Weight>
327.38094

$$$$

  SciTegic11272012012D

 22 24  0  0  0  0            999 V2000
   -0.1742   -2.8725    0.0000 C   0  0
   -0.3790   -2.2450    0.0000 C   0  0
   -1.0247   -2.1088    0.0000 C   0  0
    0.1713   -1.6316    0.0000 N   0  0
    0.9918   -1.7179    0.0000 N   0  0
    1.3273   -0.9642    0.0000 C   0  0
    2.1348   -0.7925    0.0000 C   0  0
    2.7754   -1.2969    0.0000 O   0  0
    3.4553   -0.8296    0.0000 C   0  0
    3.2211   -0.0386    0.0000 C   0  0
    3.7215    0.6162    0.0000 C   0  0
    3.4681    1.2256    0.0000 O   0  0
    2.3964   -0.0169    0.0000 C   0  0
    0.7145   -0.4125    0.0000 C   0  0
    0.7145    0.4125    0.0000 C   0  0
    1.4285    0.8267    0.0000 N   0  0
    0.0000    0.8250    0.0000 N   0  0
   -0.7145    0.4125    0.0000 C   0  0
   -0.7145   -0.4125    0.0000 N   0  0
    0.0000   -0.8250    0.0000 C   0  0
    1.4277    1.3767    0.0000 H   0  0
    1.9053    0.5525    0.0000 H   0  0
  1  2  1  0
  2  3  1  0
  2  4  1  0
  4  5  1  0
  5  6  2  0
  6  7  1  0
  6 14  1  0
  7  8  1  0
  8  9  1  0
  9 10  2  0
 10 11  1  0
 10 13  1  0
 11 12  2  0
 13  7  2  0
 14 15  2  0
 15 16  1  0
 15 17  1  0
 16 21  1  0
 16 22  1  0
 17 18  2  0
 18 19  1  0
 19 20  2  0
 20  4  1  0
 20 14  1  0
M  END
> <CMPD_CHEMBLID>
CHEMBL1241439

> <STANDARD_TYPE>
IC50

> <RELATION>
=

> <STANDARD_VALUE>
4500

> <STANDARD_UNITS>
nM

> <Molecular_Weight>
271.27462

$$$$

  SciTegic11272012012D

 46 51  0  0  0  0            999 V2000
    4.9969   -3.0241    0.0000 N   0  0
    5.3323   -2.2698    0.0000 C   0  0
    6.1529   -2.1850    0.0000 C   0  0
    6.4897   -1.4318    0.0000 C   0  0
    6.0059   -0.7636    0.0000 C   0  0
    5.1852   -0.8485    0.0000 C   0  0
    4.8484   -1.6017    0.0000 C   0  0
    4.0272   -1.6849    0.0000 N   0  0
    3.5440   -1.0156    0.0000 C   0  0
    3.8145   -0.4136    0.0000 O   0  0
    2.7242   -1.0988    0.0000 C   0  0
    2.1731   -0.4848    0.0000 O   0  0
    1.4293   -0.8252    0.0000 C   0  0
    1.5039   -1.6398    0.0000 C   0  0
    2.3105   -1.8126    0.0000 C   0  0
    0.7144   -0.4125    0.0000 C   0  0
    0.7144    0.4125    0.0000 C   0  0
    0.0000    0.8250    0.0000 C   0  0
   -0.7144    0.4125    0.0000 C   0  0
   -1.4290    0.8250    0.0000 N   0  0
   -2.1434    0.4125    0.0000 C   0  0
   -2.1434   -0.4125    0.0000 N   0  0
   -1.4290   -0.8250    0.0000 C   0  0
   -1.4306   -1.6504    0.0000 N   0  0
   -2.1461   -2.0622    0.0000 C   0  0
   -2.1490   -2.8872    0.0000 C   0  0
   -2.8649   -3.2972    0.0000 C   0  0
   -3.5779   -2.8823    0.0000 C   0  0
   -4.2934   -3.2940    0.0000 O   0  0
   -4.2950   -4.1194    0.0000 C   0  0
   -5.0104   -4.5312    0.0000 C   0  0
   -5.0134   -5.3562    0.0000 C   0  0
   -5.7292   -5.7662    0.0000 C   0  0
   -6.4423   -5.3513    0.0000 C   0  0
   -6.4395   -4.5263    0.0000 C   0  0
   -7.0099   -4.1943    0.0000 F   0  0
   -5.7236   -4.1163    0.0000 C   0  0
   -3.5751   -2.0573    0.0000 C   0  0
   -4.1455   -1.7253    0.0000 Cl  0  0
   -2.8592   -1.6472    0.0000 C   0  0
   -0.7144   -0.4125    0.0000 C   0  0
    0.0000   -0.8250    0.0000 C   0  0
   -0.9548   -1.9263    0.0000 H   0  0
    3.8018   -2.1866    0.0000 H   0  0
    5.3201   -3.4691    0.0000 H   0  0
    4.4499   -3.0817    0.0000 H   0  0
  1  2  1  0
  1 45  1  0
  1 46  1  0
  2  3  2  0
  3  4  1  0
  4  5  2  0
  5  6  1  0
  6  7  2  0
  7  2  1  0
  7  8  1  0
  8  9  1  0
  8 44  1  0
  9 10  2  0
  9 11  1  0
 11 12  1  0
 12 13  1  0
 13 14  2  0
 13 16  1  0
 14 15  1  0
 15 11  2  0
 16 17  2  0
 17 18  1  0
 18 19  2  0
 19 20  1  0
 20 21  2  0
 21 22  1  0
 22 23  2  0
 23 24  1  0
 23 41  1  0
 24 25  1  0
 24 43  1  0
 25 26  2  0
 26 27  1  0
 27 28  2  0
 28 29  1  0
 28 38  1  0
 29 30  1  0
 30 31  1  0
 31 32  2  0
 32 33  1  0
 33 34  2  0
 34 35  1  0
 35 36  1  0
 35 37  2  0
 37 31  1  0
 38 39  1  0
 38 40  2  0
 40 25  1  0
 41 19  1  0
 41 42  2  0
 42 16  1  0
M  END
> <CMPD_CHEMBLID>
CHEMBL1630111

> <STANDARD_TYPE>
IC50

> <RELATION>
=

> <STANDARD_VALUE>
4500

> <STANDARD_UNITS>
nM

> <Molecular_Weight>
580.00812

$$$$

  SciTegic11272012012D

 37 40  0  0  0  0            999 V2000
    2.8542   -3.3060    0.0000 O   0  0
    2.1402   -2.8918    0.0000 N   0  0
    2.1413   -2.0663    0.0000 C   0  0
    2.7135   -1.7373    0.0000 O   0  0
    1.4273   -1.6521    0.0000 C   0  0
    1.4285   -0.8267    0.0000 C   0  0
    0.7144   -0.4125    0.0000 C   0  0
    0.7144    0.4125    0.0000 C   0  0
    0.0000    0.8250    0.0000 C   0  0
   -0.7144    0.4125    0.0000 C   0  0
   -0.7144   -0.4125    0.0000 C   0  0
    0.0000   -0.8250    0.0000 C   0  0
   -1.4302    0.8237    0.0000 C   0  0
   -1.4313    1.4837    0.0000 O   0  0
   -2.1444    0.4100    0.0000 N   0  0
   -2.8602    0.8213    0.0000 C   0  0
   -3.5747    0.4088    0.0000 C   0  0
   -4.2892    0.8213    0.0000 C   0  0
   -4.2892    1.6463    0.0000 C   0  0
   -3.5747    2.0588    0.0000 C   0  0
   -3.5731    2.8842    0.0000 N   0  0
   -2.8576    3.2960    0.0000 C   0  0
   -2.7790    4.1101    0.0000 N   0  0
   -1.9714    4.2789    0.0000 C   0  0
   -1.5614    3.5630    0.0000 C   0  0
   -2.1155    2.9518    0.0000 S   0  0
   -0.7408    3.4739    0.0000 C   0  0
   -0.2070    4.0994    0.0000 C   0  0
    0.6042    3.9488    0.0000 C   0  0
    0.8794    3.1711    0.0000 C   0  0
    0.3434    2.5438    0.0000 N   0  0
   -0.4677    2.6944    0.0000 C   0  0
   -2.8602    1.6463    0.0000 C   0  0
   -4.0489    3.1600    0.0000 H   0  0
   -2.1435   -0.1400    0.0000 H   0  0
    1.6634   -3.1660    0.0000 H   0  0
    2.8534   -3.8560    0.0000 H   0  0
  1  2  1  0
  1 37  1  0
  2  3  1  0
  2 36  1  0
  3  4  2  0
  3  5  1  0
  5  6  2  0
  6  7  1  0
  7  8  2  0
  8  9  1  0
  9 10  2  0
 10 11  1  0
 10 13  1  0
 11 12  2  0
 12  7  1  0
 13 14  2  0
 13 15  1  0
 15 16  1  0
 15 35  1  0
 16 17  2  0
 17 18  1  0
 18 19  2  0
 19 20  1  0
 20 21  1  0
 20 33  2  0
 21 22  1  0
 21 34  1  0
 22 23  2  0
 23 24  1  0
 24 25  2  0
 25 26  1  0
 25 27  1  0
 26 22  1  0
 27 28  2  0
 28 29  1  0
 29 30  2  0
 30 31  1  0
 31 32  2  0
 32 27  1  0
 33 16  1  0
M  END
> <CMPD_CHEMBLID>
CHEMBL492956

> <STANDARD_TYPE>
IC50

> <RELATION>
=

> <STANDARD_VALUE>
4500

> <STANDARD_UNITS>
nM

> <Molecular_Weight>
457.50436

$$$$

  SciTegic11272012012D

 29 32  0  0  0  0            999 V2000
    1.4302   -0.8237    0.0000 N   0  0
    0.7144   -0.4125    0.0000 C   0  0
    0.7144    0.4125    0.0000 N   0  0
    0.0000    0.8250    0.0000 C   0  0
   -0.7144    0.4125    0.0000 N   0  0
   -0.7144   -0.4125    0.0000 C   0  0
    0.0000   -0.8250    0.0000 C   0  0
   -0.1713   -1.6316    0.0000 C   0  0
   -0.9918   -1.7178    0.0000 N   0  0
   -1.3273   -0.9641    0.0000 N   0  0
   -2.1337   -0.7943    0.0000 C   0  0
   -2.6852   -1.4084    0.0000 C   0  0
   -3.4928   -1.2396    0.0000 C   0  0
   -4.0428   -1.8545    0.0000 C   0  0
   -3.7853   -2.6383    0.0000 N   0  0
   -2.9778   -2.8072    0.0000 C   0  0
   -2.4277   -2.1922    0.0000 C   0  0
    0.3811   -2.2449    0.0000 C   0  0
    1.1959   -2.1344    0.0000 C   0  0
    1.7002   -2.7873    0.0000 C   0  0
    1.3870   -3.5505    0.0000 C   0  0
    1.7905   -4.0728    0.0000 Cl  0  0
    0.5694   -3.6609    0.0000 C   0  0
    0.2544   -4.4239    0.0000 O   0  0
    0.0651   -3.0080    0.0000 C   0  0
   -0.2907   -4.4966    0.0000 H   0  0
   -4.1520   -3.0482    0.0000 H   0  0
    1.9061   -0.5481    0.0000 H   0  0
    1.4311   -1.3737    0.0000 H   0  0
  1  2  1  0
  1 28  1  0
  1 29  1  0
  2  3  2  0
  3  4  1  0
  4  5  2  0
  5  6  1  0
  6  7  2  0
  7  2  1  0
  7  8  1  0
  8  9  2  0
  8 18  1  0
  9 10  1  0
 10  6  1  0
 10 11  1  0
 11 12  1  0
 12 13  1  0
 13 14  1  0
 14 15  1  0
 15 16  1  0
 15 27  1  0
 16 17  1  0
 17 12  1  0
 18 19  2  0
 19 20  1  0
 20 21  2  0
 21 22  1  0
 21 23  1  0
 23 24  1  0
 23 25  2  0
 24 26  1  0
 25 18  1  0
M  END
> <CMPD_CHEMBLID>
CHEMBL1241859

> <STANDARD_TYPE>
IC50

> <RELATION>
=

> <STANDARD_VALUE>
4500

> <STANDARD_UNITS>
nM

> <Molecular_Weight>
358.82536

$$$$

  SciTegic11272012012D

 33 37  0  0  0  0            999 V2000
    1.9982   -1.9833    0.0000 C   0  0
    1.4273   -1.6521    0.0000 C   0  0
    1.4285   -0.8267    0.0000 O   0  0
    0.7144   -0.4125    0.0000 C   0  0
    0.7144    0.4125    0.0000 C   0  0
    0.0000    0.8250    0.0000 C   0  0
   -0.7144    0.4125    0.0000 C   0  0
   -1.4290    0.8250    0.0000 C   0  0
   -2.1434    0.4125    0.0000 C   0  0
   -2.1434   -0.4125    0.0000 C   0  0
   -1.4290   -0.8250    0.0000 C   0  0
   -0.7144   -0.4125    0.0000 C   0  0
    0.0000   -0.8250    0.0000 C   0  0
   -2.8582    0.8252    0.0000 C   0  0
   -3.6010    0.4826    0.0000 N   0  0
   -4.1539    1.0949    0.0000 N   0  0
   -4.9732    1.0061    0.0000 C   0  0
   -5.3069    0.2511    0.0000 C   0  0
   -6.1270    0.1609    0.0000 C   0  0
   -6.4590   -0.5943    0.0000 C   0  0
   -5.9709   -1.2595    0.0000 N   0  0
   -6.2365   -1.8637    0.0000 C   0  0
   -5.1509   -1.1694    0.0000 C   0  0
   -4.8188   -0.4142    0.0000 C   0  0
   -3.7426    1.8095    0.0000 C   0  0
   -3.9986    2.5937    0.0000 N   0  0
   -3.4475    3.2077    0.0000 C   0  0
   -2.6403    3.0373    0.0000 N   0  0
   -2.3842    2.2530    0.0000 C   0  0
   -1.5762    2.0842    0.0000 N   0  0
   -2.9353    1.6391    0.0000 C   0  0
   -1.2093    2.4940    0.0000 H   0  0
   -1.4045    1.5617    0.0000 H   0  0
  1  2  1  0
  2  3  1  0
  3  4  1  0
  4  5  2  0
  5  6  1  0
  6  7  2  0
  7  8  1  0
  8  9  2  0
  9 10  1  0
  9 14  1  0
 10 11  2  0
 11 12  1  0
 12  7  1  0
 12 13  2  0
 13  4  1  0
 14 15  2  0
 15 16  1  0
 16 17  1  0
 16 25  1  0
 17 18  1  0
 18 19  1  0
 19 20  1  0
 20 21  1  0
 21 22  1  0
 21 23  1  0
 23 24  1  0
 24 18  1  0
 25 26  2  0
 26 27  1  0
 27 28  2  0
 28 29  1  0
 29 30  1  0
 29 31  2  0
 30 32  1  0
 30 33  1  0
 31 14  1  0
 31 25  1  0
M  END
> <CMPD_CHEMBLID>
CHEMBL2070081

> <STANDARD_TYPE>
IC50

> <RELATION>
=

> <STANDARD_VALUE>
4600

> <STANDARD_UNITS>
nM

> <Molecular_Weight>
416.51872

$$$$

  SciTegic11272012012D

 24 26  0  0  0  0            999 V2000
    3.3049   -3.1424    0.0000 C   0  0
    2.6450   -3.1434    0.0000 O   0  0
    2.2307   -2.4294    0.0000 C   0  0
    2.5597   -1.8572    0.0000 O   0  0
    1.4053   -2.4306    0.0000 N   0  0
    0.9918   -1.7178    0.0000 C   0  0
    1.3273   -0.9641    0.0000 N   0  0
    0.7144   -0.4125    0.0000 C   0  0
    0.7144    0.4125    0.0000 C   0  0
    0.0000    0.8250    0.0000 C   0  0
   -0.7144    0.4125    0.0000 C   0  0
   -0.7144   -0.4125    0.0000 C   0  0
    0.0000   -0.8250    0.0000 C   0  0
    0.1713   -1.6316    0.0000 N   0  0
   -1.4302    0.8237    0.0000 C   0  0
   -1.4313    1.4837    0.0000 O   0  0
   -2.1444    0.4100    0.0000 C   0  0
   -2.8604    0.8200    0.0000 C   0  0
   -3.5735    0.4050    0.0000 C   0  0
   -3.5706   -0.4200    0.0000 C   0  0
   -2.8547   -0.8300    0.0000 C   0  0
   -2.1416   -0.4150    0.0000 C   0  0
   -0.1967   -2.0403    0.0000 H   0  0
    1.1311   -2.9074    0.0000 H   0  0
  1  2  1  0
  2  3  1  0
  3  4  2  0
  3  5  1  0
  5  6  1  0
  5 24  1  0
  6  7  2  0
  7  8  1  0
  8  9  2  0
  9 10  1  0
 10 11  2  0
 11 12  1  0
 11 15  1  0
 12 13  2  0
 13  8  1  0
 13 14  1  0
 14  6  1  0
 14 23  1  0
 15 16  2  0
 15 17  1  0
 17 18  2  0
 18 19  1  0
 19 20  2  0
 20 21  1  0
 21 22  2  0
 22 17  1  0
M  END
> <CMPD_CHEMBLID>
CHEMBL685

> <STANDARD_TYPE>
Ki

> <RELATION>
=

> <STANDARD_VALUE>
4600

> <STANDARD_UNITS>
nM

> <Molecular_Weight>
295.29272

$$$$

  SciTegic11272012012D

 30 33  0  0  0  0            999 V2000
    3.0010   -3.2134    0.0000 C   0  0
    3.5730   -2.8842    0.0000 O   0  0
    3.5747   -2.0587    0.0000 C   0  0
    4.2891   -1.6462    0.0000 C   0  0
    4.2891   -0.8213    0.0000 C   0  0
    3.5746   -0.4088    0.0000 C   0  0
    2.8601   -0.8213    0.0000 C   0  0
    2.1444   -0.4100    0.0000 C   0  0
    1.4301   -0.8237    0.0000 N   0  0
    0.7144   -0.4125    0.0000 C   0  0
    0.7144    0.4125    0.0000 N   0  0
    0.0000    0.8250    0.0000 C   0  0
   -0.7144    0.4125    0.0000 N   0  0
   -0.7144   -0.4125    0.0000 C   0  0
    0.0000   -0.8250    0.0000 C   0  0
   -0.1713   -1.6316    0.0000 C   0  0
   -0.9917   -1.7178    0.0000 N   0  0
   -1.3273   -0.9641    0.0000 N   0  0
   -2.1336   -0.7943    0.0000 C   0  0
   -2.6852   -1.4084    0.0000 C   0  0
   -2.4803   -2.0358    0.0000 Cl  0  0
   -3.4930   -1.2383    0.0000 C   0  0
   -4.0451   -1.8513    0.0000 C   0  0
   -4.8520   -1.6797    0.0000 C   0  0
   -5.1069   -0.8950    0.0000 C   0  0
   -5.7524   -0.7577    0.0000 Br  0  0
   -4.5548   -0.2820    0.0000 C   0  0
   -3.7478   -0.4536    0.0000 C   0  0
    2.8602   -1.6463    0.0000 C   0  0
    1.4311   -1.3737    0.0000 H   0  0
  1  2  1  0
  2  3  1  0
  3  4  2  0
  4  5  1  0
  5  6  2  0
  6  7  1  0
  7  8  1  0
  7 29  2  0
  8  9  1  0
  9 10  1  0
  9 30  1  0
 10 11  2  0
 11 12  1  0
 12 13  2  0
 13 14  1  0
 14 15  2  0
 15 10  1  0
 15 16  1  0
 16 17  2  0
 17 18  1  0
 18 14  1  0
 18 19  1  0
 19 20  1  0
 20 21  1  0
 20 22  1  0
 22 23  2  0
 23 24  1  0
 24 25  2  0
 25 26  1  0
 25 27  1  0
 27 28  2  0
 28 22  1  0
 29  3  1  0
M  END
> <CMPD_CHEMBLID>
CHEMBL2397815

> <STANDARD_TYPE>
Ki

> <RELATION>
=

> <STANDARD_VALUE>
4750

> <STANDARD_UNITS>
nM

> <Molecular_Weight>
472.76546

$$$$

  SciTegic11272012012D

 25 27  0  0  0  0            999 V2000
    3.4313   -0.4904    0.0000 C   0  0
    2.8602   -0.8213    0.0000 C   0  0
    2.1444   -0.4100    0.0000 C   0  0
    1.4302   -0.8237    0.0000 N   0  0
    0.7144   -0.4125    0.0000 C   0  0
    0.7144    0.4125    0.0000 N   0  0
    0.0000    0.8250    0.0000 C   0  0
   -0.0017    1.6504    0.0000 S   0  0
   -0.5738    1.9796    0.0000 C   0  0
   -0.7144    0.4125    0.0000 N   0  0
   -0.7144   -0.4125    0.0000 C   0  0
    0.0000   -0.8250    0.0000 C   0  0
   -0.1713   -1.6316    0.0000 C   0  0
   -0.9918   -1.7178    0.0000 N   0  0
   -1.3273   -0.9641    0.0000 N   0  0
   -2.1337   -0.7943    0.0000 C   0  0
   -2.6853   -1.4084    0.0000 C   0  0
   -2.4803   -2.0358    0.0000 Cl  0  0
   -3.4930   -1.2383    0.0000 C   0  0
   -4.0452   -1.8514    0.0000 C   0  0
   -4.8521   -1.6797    0.0000 C   0  0
   -5.1069   -0.8950    0.0000 C   0  0
   -4.5548   -0.2820    0.0000 C   0  0
   -3.7479   -0.4536    0.0000 C   0  0
    1.4312   -1.3737    0.0000 H   0  0
  1  2  1  0
  2  3  1  0
  3  4  1  0
  4  5  1  0
  4 25  1  0
  5  6  2  0
  6  7  1  0
  7  8  1  0
  7 10  2  0
  8  9  1  0
 10 11  1  0
 11 12  2  0
 12  5  1  0
 12 13  1  0
 13 14  2  0
 14 15  1  0
 15 11  1  0
 15 16  1  0
 16 17  1  0
 17 18  1  0
 17 19  1  0
 19 20  2  0
 20 21  1  0
 21 22  2  0
 22 23  1  0
 23 24  2  0
 24 19  1  0
M  END
> <CMPD_CHEMBLID>
CHEMBL312214

> <STANDARD_TYPE>
Ki

> <RELATION>
=

> <STANDARD_VALUE>
4800

> <STANDARD_UNITS>
nM

> <Molecular_Weight>
361.8922

$$$$

  SciTegic11272012012D

 49 50  0  0  0  0            999 V2000
    1.2774   -3.2199    0.0000 C   0  0
    0.7072   -2.8875    0.0000 C   0  0
    0.1344   -3.2153    0.0000 O   0  0
    0.7108   -2.0621    0.0000 N   0  0
    1.4273   -1.6521    0.0000 C   0  0
    1.4285   -0.8267    0.0000 C   0  0
    0.7144   -0.4125    0.0000 C   0  0
    0.7144    0.4125    0.0000 C   0  0
    0.0000    0.8250    0.0000 C   0  0
   -0.7144    0.4125    0.0000 C   0  0
   -1.4301    0.8237    0.0000 O   0  0
   -2.1444    0.4100    0.0000 P   0  0
   -2.1432   -0.2500    0.0000 O   0  0
   -2.8601    0.8212    0.0000 O   0  0
   -1.4155   -0.0105    0.0000 O   0  0
   -0.7144   -0.4125    0.0000 C   0  0
    0.0000   -0.8250    0.0000 C   0  0
    2.1412   -2.0663    0.0000 C   0  0
    2.7134   -1.7373    0.0000 O   0  0
    2.1401   -2.8917    0.0000 N   0  0
    2.8541   -3.3059    0.0000 C   0  0
    3.5705   -2.8959    0.0000 C   0  0
    4.2840   -3.3108    0.0000 C   0  0
    5.0004   -2.9009    0.0000 C   0  0
    5.0027   -2.2409    0.0000 O   0  0
    5.7139   -3.3158    0.0000 O   0  0
    2.8529   -4.1313    0.0000 C   0  0
    2.2808   -4.4603    0.0000 O   0  0
    3.5669   -4.5455    0.0000 N   0  0
    3.5657   -5.3709    0.0000 C   0  0
    4.2797   -5.7851    0.0000 C   0  0
    4.2785   -6.6105    0.0000 C   0  0
    4.9925   -7.0247    0.0000 C   0  0
    4.9926   -7.8496    0.0000 C   0  0
    5.7070   -8.2622    0.0000 C   0  0
    6.4215   -7.8497    0.0000 C   0  0
    6.4215   -7.0247    0.0000 C   0  0
    5.7070   -6.6122    0.0000 C   0  0
    2.8510   -5.7839    0.0000 C   0  0
    2.2794   -5.4539    0.0000 O   0  0
    2.8507   -6.6093    0.0000 N   0  0
    2.3745   -6.8844    0.0000 H   0  0
    3.3271   -6.8843    0.0000 H   0  0
    4.0437   -4.2713    0.0000 H   0  0
    6.1913   -3.0427    0.0000 H   0  0
    1.6633   -3.1659    0.0000 H   0  0
   -1.4150   -0.5605    0.0000 H   0  0
   -3.3360    0.5456    0.0000 H   0  0
    0.2357   -1.7851    0.0000 H   0  0
  1  2  1  0
  2  3  2  0
  2  4  1  0
  4  5  1  0
  4 49  1  0
  5  6  1  0
  5 18  1  0
  6  7  1  0
  7  8  2  0
  8  9  1  0
  9 10  2  0
 10 11  1  0
 10 16  1  0
 11 12  1  0
 12 13  2  0
 12 14  1  0
 12 15  1  0
 14 48  1  0
 15 47  1  0
 16 17  2  0
 17  7  1  0
 18 19  2  0
 18 20  1  0
 20 21  1  0
 20 46  1  0
 21 22  1  0
 21 27  1  0
 22 23  1  0
 23 24  1  0
 24 25  2  0
 24 26  1  0
 26 45  1  0
 27 28  2  0
 27 29  1  0
 29 30  1  0
 29 44  1  0
 30 31  1  0
 30 39  1  0
 31 32  1  0
 32 33  1  0
 33 34  1  0
 34 35  1  0
 35 36  1  0
 36 37  1  0
 37 38  1  0
 38 33  1  0
 39 40  2  0
 39 41  1  0
 41 42  1  0
 41 43  1  0
M  END
> <CMPD_CHEMBLID>
CHEMBL293803

> <STANDARD_TYPE>
IC50

> <RELATION>
=

> <STANDARD_VALUE>
4900

> <STANDARD_UNITS>
nM

> <Molecular_Weight>
598.58242

$$$$

  SciTegic11272012012D

 48 53  0  0  0  0            999 V2000
    6.3013   -3.6101    0.0000 N   0  0
    6.6367   -2.8559    0.0000 C   0  0
    7.4573   -2.7710    0.0000 C   0  0
    7.7941   -2.0178    0.0000 C   0  0
    7.3103   -1.3496    0.0000 C   0  0
    6.4897   -1.4345    0.0000 C   0  0
    6.1528   -2.1876    0.0000 C   0  0
    5.3316   -2.2709    0.0000 N   0  0
    4.8484   -1.6017    0.0000 C   0  0
    5.1189   -0.9996    0.0000 O   0  0
    4.0272   -1.6849    0.0000 C   0  0
    3.5440   -1.0156    0.0000 C   0  0
    2.7242   -1.0988    0.0000 C   0  0
    2.1731   -0.4848    0.0000 O   0  0
    1.4293   -0.8252    0.0000 C   0  0
    1.5039   -1.6398    0.0000 C   0  0
    2.3105   -1.8126    0.0000 C   0  0
    0.7144   -0.4125    0.0000 C   0  0
    0.7144    0.4125    0.0000 C   0  0
    0.0000    0.8250    0.0000 C   0  0
   -0.7144    0.4125    0.0000 C   0  0
   -1.4290    0.8250    0.0000 N   0  0
   -2.1434    0.4125    0.0000 C   0  0
   -2.1434   -0.4125    0.0000 N   0  0
   -1.4290   -0.8250    0.0000 C   0  0
   -1.4306   -1.6504    0.0000 N   0  0
   -2.1461   -2.0622    0.0000 C   0  0
   -2.1490   -2.8872    0.0000 C   0  0
   -2.8649   -3.2972    0.0000 C   0  0
   -3.5779   -2.8823    0.0000 C   0  0
   -4.2934   -3.2940    0.0000 O   0  0
   -4.2950   -4.1194    0.0000 C   0  0
   -5.0104   -4.5312    0.0000 C   0  0
   -5.0134   -5.3562    0.0000 C   0  0
   -5.7292   -5.7662    0.0000 C   0  0
   -6.4423   -5.3513    0.0000 C   0  0
   -6.4395   -4.5263    0.0000 C   0  0
   -7.0099   -4.1943    0.0000 F   0  0
   -5.7236   -4.1163    0.0000 C   0  0
   -3.5751   -2.0573    0.0000 C   0  0
   -4.1455   -1.7253    0.0000 Cl  0  0
   -2.8592   -1.6472    0.0000 C   0  0
   -0.7144   -0.4125    0.0000 C   0  0
    0.0000   -0.8250    0.0000 C   0  0
   -0.9548   -1.9263    0.0000 H   0  0
    5.1062   -2.7726    0.0000 H   0  0
    6.6245   -4.0551    0.0000 H   0  0
    5.7543   -3.6677    0.0000 H   0  0
  1  2  1  0
  1 47  1  0
  1 48  1  0
  2  3  2  0
  3  4  1  0
  4  5  2  0
  5  6  1  0
  6  7  2  0
  7  2  1  0
  7  8  1  0
  8  9  1  0
  8 46  1  0
  9 10  2  0
  9 11  1  0
 11 12  2  0
 12 13  1  0
 13 14  1  0
 14 15  1  0
 15 16  2  0
 15 18  1  0
 16 17  1  0
 17 13  2  0
 18 19  2  0
 19 20  1  0
 20 21  2  0
 21 22  1  0
 22 23  2  0
 23 24  1  0
 24 25  2  0
 25 26  1  0
 25 43  1  0
 26 27  1  0
 26 45  1  0
 27 28  2  0
 28 29  1  0
 29 30  2  0
 30 31  1  0
 30 40  1  0
 31 32  1  0
 32 33  1  0
 33 34  2  0
 34 35  1  0
 35 36  2  0
 36 37  1  0
 37 38  1  0
 37 39  2  0
 39 33  1  0
 40 41  1  0
 40 42  2  0
 42 27  1  0
 43 21  1  0
 43 44  2  0
 44 18  1  0
M  END
> <CMPD_CHEMBLID>
CHEMBL1630113

> <STANDARD_TYPE>
IC50

> <RELATION>
=

> <STANDARD_VALUE>
4900

> <STANDARD_UNITS>
nM

> <Molecular_Weight>
606.0454

$$$$

  SciTegic11272012012D

 42 46  0  0  0  0            999 V2000
    4.9921   -4.5494    0.0000 O   0  0
    4.2787   -4.1341    0.0000 N   0  0
    4.2812   -3.3086    0.0000 C   0  0
    4.8539   -2.9805    0.0000 O   0  0
    3.5678   -2.8933    0.0000 C   0  0
    3.5703   -2.0678    0.0000 C   0  0
    2.8570   -1.6525    0.0000 C   0  0
    2.8583   -0.8275    0.0000 C   0  0
    2.1445   -0.4139    0.0000 C   0  0
    1.4293   -0.8252    0.0000 C   0  0
    1.4281   -1.6502    0.0000 C   0  0
    2.1419   -2.0639    0.0000 C   0  0
    0.7144   -0.4125    0.0000 C   0  0
    0.7144    0.4125    0.0000 C   0  0
    0.0000    0.8250    0.0000 C   0  0
   -0.7144    0.4125    0.0000 C   0  0
   -1.4290    0.8250    0.0000 N   0  0
   -2.1434    0.4125    0.0000 C   0  0
   -2.1434   -0.4125    0.0000 N   0  0
   -1.4290   -0.8250    0.0000 C   0  0
   -1.4306   -1.6504    0.0000 N   0  0
   -2.1461   -2.0622    0.0000 C   0  0
   -2.1490   -2.8872    0.0000 C   0  0
   -2.8649   -3.2972    0.0000 C   0  0
   -3.5779   -2.8823    0.0000 C   0  0
   -4.2933   -3.2940    0.0000 O   0  0
   -4.2950   -4.1194    0.0000 C   0  0
   -5.0104   -4.5312    0.0000 C   0  0
   -5.0134   -5.3562    0.0000 C   0  0
   -5.7292   -5.7662    0.0000 C   0  0
   -6.4423   -5.3513    0.0000 C   0  0
   -6.4394   -4.5263    0.0000 C   0  0
   -7.0099   -4.1943    0.0000 F   0  0
   -5.7236   -4.1162    0.0000 C   0  0
   -3.5751   -2.0573    0.0000 C   0  0
   -4.1455   -1.7253    0.0000 Cl  0  0
   -2.8592   -1.6472    0.0000 C   0  0
   -0.7144   -0.4125    0.0000 C   0  0
    0.0000   -0.8250    0.0000 C   0  0
   -0.9548   -1.9263    0.0000 H   0  0
    3.8015   -4.4075    0.0000 H   0  0
    4.9904   -5.0994    0.0000 H   0  0
  1  2  1  0
  1 42  1  0
  2  3  1  0
  2 41  1  0
  3  4  2  0
  3  5  1  0
  5  6  2  0
  6  7  1  0
  7  8  2  0
  8  9  1  0
  9 10  2  0
 10 11  1  0
 10 13  1  0
 11 12  2  0
 12  7  1  0
 13 14  2  0
 14 15  1  0
 15 16  2  0
 16 17  1  0
 17 18  2  0
 18 19  1  0
 19 20  2  0
 20 21  1  0
 20 38  1  0
 21 22  1  0
 21 40  1  0
 22 23  2  0
 23 24  1  0
 24 25  2  0
 25 26  1  0
 25 35  1  0
 26 27  1  0
 27 28  1  0
 28 29  2  0
 29 30  1  0
 30 31  2  0
 31 32  1  0
 32 33  1  0
 32 34  2  0
 34 28  1  0
 35 36  1  0
 35 37  2  0
 37 22  1  0
 38 16  1  0
 38 39  2  0
 39 13  1  0
M  END
> <CMPD_CHEMBLID>
CHEMBL1630110

> <STANDARD_TYPE>
IC50

> <RELATION>
=

> <STANDARD_VALUE>
4900

> <STANDARD_UNITS>
nM

> <Molecular_Weight>
540.97208

$$$$

  SciTegic11272012012D

 49 54  0  0  0  0            999 V2000
    4.2761   -5.7875    0.0000 N   0  0
    4.9908   -5.3744    0.0000 C   0  0
    5.7046   -5.7880    0.0000 C   0  0
    6.4198   -5.3767    0.0000 C   0  0
    6.4211   -4.5517    0.0000 C   0  0
    5.7073   -4.1380    0.0000 C   0  0
    4.9921   -4.5494    0.0000 C   0  0
    4.2787   -4.1341    0.0000 N   0  0
    4.2812   -3.3086    0.0000 C   0  0
    4.8539   -2.9805    0.0000 O   0  0
    3.5678   -2.8933    0.0000 C   0  0
    3.5703   -2.0678    0.0000 C   0  0
    2.8570   -1.6525    0.0000 C   0  0
    2.8583   -0.8275    0.0000 C   0  0
    2.1445   -0.4139    0.0000 C   0  0
    1.4293   -0.8252    0.0000 C   0  0
    1.4281   -1.6502    0.0000 C   0  0
    2.1419   -2.0639    0.0000 C   0  0
    0.7144   -0.4125    0.0000 C   0  0
    0.7144    0.4125    0.0000 C   0  0
    0.0000    0.8250    0.0000 C   0  0
   -0.7144    0.4125    0.0000 C   0  0
   -1.4290    0.8250    0.0000 N   0  0
   -2.1434    0.4125    0.0000 C   0  0
   -2.1434   -0.4125    0.0000 N   0  0
   -1.4290   -0.8250    0.0000 C   0  0
   -1.4306   -1.6504    0.0000 N   0  0
   -2.1461   -2.0622    0.0000 C   0  0
   -2.1490   -2.8872    0.0000 C   0  0
   -2.8649   -3.2972    0.0000 C   0  0
   -3.5779   -2.8823    0.0000 C   0  0
   -4.2933   -3.2940    0.0000 O   0  0
   -4.2950   -4.1194    0.0000 C   0  0
   -5.0104   -4.5312    0.0000 C   0  0
   -5.0134   -5.3562    0.0000 C   0  0
   -5.7292   -5.7662    0.0000 C   0  0
   -6.4423   -5.3513    0.0000 C   0  0
   -6.4394   -4.5263    0.0000 C   0  0
   -7.0099   -4.1943    0.0000 F   0  0
   -5.7236   -4.1162    0.0000 C   0  0
   -3.5751   -2.0573    0.0000 C   0  0
   -4.1455   -1.7253    0.0000 Cl  0  0
   -2.8592   -1.6472    0.0000 C   0  0
   -0.7144   -0.4125    0.0000 C   0  0
    0.0000   -0.8250    0.0000 C   0  0
   -0.9548   -1.9263    0.0000 H   0  0
    3.8015   -4.4075    0.0000 H   0  0
    4.2761   -6.3375    0.0000 H   0  0
    3.7998   -5.5125    0.0000 H   0  0
  1  2  1  0
  1 48  1  0
  1 49  1  0
  2  3  2  0
  3  4  1  0
  4  5  2  0
  5  6  1  0
  6  7  2  0
  7  2  1  0
  7  8  1  0
  8  9  1  0
  8 47  1  0
  9 10  2  0
  9 11  1  0
 11 12  2  0
 12 13  1  0
 13 14  2  0
 14 15  1  0
 15 16  2  0
 16 17  1  0
 16 19  1  0
 17 18  2  0
 18 13  1  0
 19 20  2  0
 20 21  1  0
 21 22  2  0
 22 23  1  0
 23 24  2  0
 24 25  1  0
 25 26  2  0
 26 27  1  0
 26 44  1  0
 27 28  1  0
 27 46  1  0
 28 29  2  0
 29 30  1  0
 30 31  2  0
 31 32  1  0
 31 41  1  0
 32 33  1  0
 33 34  1  0
 34 35  2  0
 35 36  1  0
 36 37  2  0
 37 38  1  0
 38 39  1  0
 38 40  2  0
 40 34  1  0
 41 42  1  0
 41 43  2  0
 43 28  1  0
 44 22  1  0
 44 45  2  0
 45 19  1  0
M  END
> <CMPD_CHEMBLID>
CHEMBL1630115

> <STANDARD_TYPE>
IC50

> <RELATION>
=

> <STANDARD_VALUE>
4900

> <STANDARD_UNITS>
nM

> <Molecular_Weight>
616.08328

$$$$

  SciTegic11272012012D

 27 30  0  0  0  0            999 V2000
    3.5747   -2.7187    0.0000 F   0  0
    3.5747   -2.0587    0.0000 C   0  0
    4.2891   -1.6462    0.0000 C   0  0
    4.2891   -0.8212    0.0000 C   0  0
    3.5746   -0.4088    0.0000 C   0  0
    2.8601   -0.8212    0.0000 C   0  0
    2.1444   -0.4100    0.0000 C   0  0
    1.4301   -0.8237    0.0000 N   0  0
    0.7144   -0.4125    0.0000 C   0  0
    0.7144    0.4125    0.0000 N   0  0
    0.0000    0.8250    0.0000 C   0  0
   -0.7144    0.4125    0.0000 N   0  0
   -0.7144   -0.4125    0.0000 C   0  0
    0.0000   -0.8250    0.0000 C   0  0
   -0.1713   -1.6316    0.0000 C   0  0
   -0.9917   -1.7178    0.0000 N   0  0
   -1.3273   -0.9641    0.0000 N   0  0
   -2.1336   -0.7943    0.0000 C   0  0
   -2.6852   -1.4084    0.0000 C   0  0
   -3.4929   -1.2383    0.0000 C   0  0
   -4.0451   -1.8513    0.0000 C   0  0
   -4.8520   -1.6797    0.0000 C   0  0
   -5.1068   -0.8950    0.0000 C   0  0
   -4.5548   -0.2820    0.0000 C   0  0
   -3.7478   -0.4536    0.0000 C   0  0
    2.8602   -1.6463    0.0000 C   0  0
    1.4311   -1.3737    0.0000 H   0  0
  1  2  1  0
  2  3  2  0
  3  4  1  0
  4  5  2  0
  5  6  1  0
  6  7  1  0
  6 26  2  0
  7  8  1  0
  8  9  1  0
  8 27  1  0
  9 10  2  0
 10 11  1  0
 11 12  2  0
 12 13  1  0
 13 14  2  0
 14  9  1  0
 14 15  1  0
 15 16  2  0
 16 17  1  0
 17 13  1  0
 17 18  1  0
 18 19  1  0
 19 20  1  0
 20 21  2  0
 21 22  1  0
 22 23  2  0
 23 24  1  0
 24 25  2  0
 25 20  1  0
 26  2  1  0
M  END
> <CMPD_CHEMBLID>
CHEMBL1836681

> <STANDARD_TYPE>
Ki

> <RELATION>
=

> <STANDARD_VALUE>
4920

> <STANDARD_UNITS>
nM

> <Molecular_Weight>
347.38882

$$$$

  SciTegic11272012012D

 35 38  0  0  0  0            999 V2000
    2.8614   -1.4813    0.0000 C   0  0
    2.8602   -0.8213    0.0000 C   0  0
    2.1445   -0.4100    0.0000 N   0  0
    1.4302   -0.8237    0.0000 C   0  0
    1.4313   -1.4838    0.0000 O   0  0
    0.7145   -0.4125    0.0000 C   0  0
    0.7145    0.4125    0.0000 C   0  0
    0.0000    0.8250    0.0000 C   0  0
   -0.7145    0.4125    0.0000 C   0  0
   -0.7145   -0.4125    0.0000 N   0  0
    0.0000   -0.8250    0.0000 C   0  0
   -0.0017   -1.6505    0.0000 N   0  0
    0.0000    1.6505    0.0000 C   0  0
    0.6667    2.1244    0.0000 C   0  0
    0.4105    2.9087    0.0000 N   0  0
   -0.4145    2.9073    0.0000 N   0  0
   -0.6682    2.1223    0.0000 C   0  0
   -0.9007    3.5743    0.0000 C   0  0
   -0.6245    4.3489    0.0000 C   0  0
   -1.1593    4.9771    0.0000 C   0  0
   -1.9707    4.8280    0.0000 O   0  0
   -2.2474    4.0508    0.0000 C   0  0
   -1.7127    3.4226    0.0000 C   0  0
    3.5745   -0.4075    0.0000 C   0  0
    4.2904   -0.8175    0.0000 C   0  0
    4.2928   -1.4775    0.0000 Cl  0  0
    5.0035   -0.4026    0.0000 C   0  0
    5.0006    0.4225    0.0000 C   0  0
    4.2847    0.8325    0.0000 C   0  0
    4.2825    1.4925    0.0000 F   0  0
    3.5717    0.4175    0.0000 C   0  0
    2.9990    0.7455    0.0000 Cl  0  0
   -0.4784   -1.9248    0.0000 H   0  0
    0.4742   -1.9263    0.0000 H   0  0
    2.1435    0.1400    0.0000 H   0  0
  1  2  1  0
  2  3  1  0
  2 24  1  0
  3  4  1  0
  3 35  1  0
  4  5  2  0
  4  6  1  0
  6  7  2  0
  7  8  1  0
  8  9  2  0
  8 13  1  0
  9 10  1  0
 10 11  2  0
 11  6  1  0
 11 12  1  0
 12 33  1  0
 12 34  1  0
 13 14  1  0
 14 15  2  0
 15 16  1  0
 16 17  1  0
 16 18  1  0
 17 13  2  0
 18 19  1  0
 19 20  1  0
 20 21  1  0
 21 22  1  0
 22 23  1  0
 23 18  1  0
 24 25  2  0
 25 26  1  0
 25 27  1  0
 27 28  2  0
 28 29  1  0
 29 30  1  0
 29 31  2  0
 31 24  1  0
 31 32  1  0
M  END
> <CMPD_CHEMBLID>
CHEMBL2071457

> <STANDARD_TYPE>
IC50

> <RELATION>
=

> <STANDARD_VALUE>
4990

> <STANDARD_UNITS>
nM

> <Molecular_Weight>
478.34678

$$$$

  SciTegic11272012012D

 49 49  0  0  0  0            999 V2000
    6.4141  -10.1588    0.0000 C   0  0
    6.4150   -9.4992    0.0000 C   0  0
    5.7014   -9.0852    0.0000 C   0  0
    5.7025   -8.2602    0.0000 C   0  0
    4.9889   -7.8462    0.0000 C   0  0
    4.9900   -7.0212    0.0000 C   0  0
    4.2764   -6.6072    0.0000 N   0  0
    3.5621   -7.0200    0.0000 C   0  0
    3.5618   -7.8450    0.0000 C   0  0
    2.8474   -8.2577    0.0000 C   0  0
    2.8472   -9.0827    0.0000 C   0  0
    2.1328   -9.4955    0.0000 C   0  0
    2.1326  -10.1552    0.0000 C   0  0
    4.2776   -5.7822    0.0000 C   0  0
    4.8494   -5.4534    0.0000 O   0  0
    3.5639   -5.3682    0.0000 C   0  0
    2.9921   -5.6971    0.0000 C   0  0
    3.5651   -4.5432    0.0000 N   0  0
    2.8515   -4.1293    0.0000 C   0  0
    2.2796   -4.4581    0.0000 O   0  0
    2.8527   -3.3042    0.0000 C   0  0
    2.1390   -2.8903    0.0000 N   0  0
    2.1402   -2.0653    0.0000 C   0  0
    2.7120   -1.7364    0.0000 O   0  0
    1.4266   -1.6513    0.0000 C   0  0
    1.4278   -0.8263    0.0000 C   0  0
    2.1425   -0.4143    0.0000 C   0  0
    2.1449    0.4102    0.0000 C   0  0
    2.8602    0.8205    0.0000 C   0  0
    3.5731    0.4062    0.0000 C   0  0
    4.2896    0.8152    0.0000 O   0  0
    5.0023    0.3996    0.0000 P   0  0
    4.9993   -0.2600    0.0000 O   0  0
    5.7188    0.8086    0.0000 O   0  0
    4.2726   -0.0186    0.0000 O   0  0
    3.5707   -0.4184    0.0000 C   0  0
    2.8555   -0.8286    0.0000 C   0  0
    0.7105   -2.0611    0.0000 N   0  0
   -0.0026   -1.6463    0.0000 C   0  0
   -0.5752   -1.9740    0.0000 O   0  0
   -0.0004   -0.9867    0.0000 C   0  0
    3.5670   -2.8915    0.0000 C   0  0
    3.5672   -2.2319    0.0000 C   0  0
    4.1383   -3.2214    0.0000 C   0  0
    0.7086   -2.6108    0.0000 H   0  0
    4.2705   -0.5683    0.0000 H   0  0
    6.1937    0.5317    0.0000 H   0  0
    1.6625   -3.1643    0.0000 H   0  0
    4.0417   -4.2692    0.0000 H   0  0
  1  2  1  0
  2  3  1  0
  3  4  1  0
  4  5  1  0
  5  6  1  0
  6  7  1  0
  7  8  1  0
  7 14  1  0
  8  9  1  0
  9 10  1  0
 10 11  1  0
 11 12  1  0
 12 13  1  0
 14 15  2  0
 14 16  1  0
 16 17  1  0
 16 18  1  0
 18 19  1  0
 18 49  1  0
 19 20  2  0
 19 21  1  0
 21 22  1  0
 21 42  1  0
 22 23  1  0
 22 48  1  0
 23 24  2  0
 23 25  1  0
 25 26  1  0
 25 38  1  0
 26 27  1  0
 27 28  2  0
 28 29  1  0
 29 30  2  0
 30 31  1  0
 30 36  1  0
 31 32  1  0
 32 33  2  0
 32 34  1  0
 32 35  1  0
 34 47  1  0
 35 46  1  0
 36 37  2  0
 37 27  1  0
 38 39  1  0
 38 45  1  0
 39 40  2  0
 39 41  1  0
 42 43  1  0
 42 44  1  0
M  END
> <CMPD_CHEMBLID>
CHEMBL137706

> <STANDARD_TYPE>
IC50

> <RELATION>
=

> <STANDARD_VALUE>
5000

> <STANDARD_UNITS>
nM

> <Molecular_Weight>
640.74828

$$$$

  SciTegic11272012012D

 30 33  0  0  0  0            999 V2000
    1.2861   -0.7425    0.0000 C   0  0
    0.7145   -0.4125    0.0000 C   0  0
    0.7145    0.4125    0.0000 C   0  0
    0.0000    0.8250    0.0000 C   0  0
   -0.7145    0.4125    0.0000 C   0  0
   -0.7145   -0.4125    0.0000 C   0  0
    0.0000   -0.8250    0.0000 C   0  0
    0.0000   -1.4850    0.0000 C   0  0
   -1.4293    0.8252    0.0000 N   0  0
   -1.5065    1.6396    0.0000 N   0  0
   -2.3137    1.8098    0.0000 C   0  0
   -2.5831    2.4124    0.0000 O   0  0
   -2.7251    1.0947    0.0000 C   0  0
   -3.5443    1.0055    0.0000 C   0  0
   -3.8778    0.2504    0.0000 C   0  0
   -4.6791    0.0858    0.0000 O   0  0
   -4.7611   -0.7351    0.0000 C   0  0
   -4.0057   -1.0669    0.0000 C   0  0
   -3.4568   -0.4510    0.0000 C   0  0
   -5.4738   -1.1515    0.0000 C   0  0
   -6.2165   -0.7984    0.0000 C   0  0
   -6.8956   -1.2670    0.0000 C   0  0
   -6.8293   -2.0893    0.0000 C   0  0
   -7.3725   -2.4642    0.0000 C   0  0
   -6.0840   -2.4431    0.0000 C   0  0
   -6.0309   -3.1010    0.0000 Cl  0  0
   -5.4049   -1.9745    0.0000 C   0  0
   -2.1721    0.4825    0.0000 C   0  0
   -2.3044   -0.1641    0.0000 O   0  0
   -1.0961    2.0058    0.0000 H   0  0
  1  2  1  0
  2  3  2  0
  3  4  1  0
  4  5  2  0
  5  6  1  0
  5  9  1  0
  6  7  2  0
  7  2  1  0
  7  8  1  0
  9 10  1  0
 10 11  1  0
 10 30  1  0
 11 12  2  0
 11 13  1  0
 13 14  2  0
 13 28  1  0
 14 15  1  0
 15 16  1  0
 16 17  1  0
 17 18  2  0
 17 20  1  0
 18 19  1  0
 19 15  2  0
 20 21  2  0
 21 22  1  0
 22 23  2  0
 23 24  1  0
 23 25  1  0
 25 26  1  0
 25 27  2  0
 27 20  1  0
 28  9  1  0
 28 29  2  0
M  END
> <CMPD_CHEMBLID>
CHEMBL206575

> <STANDARD_TYPE>
Ki

> <RELATION>
=

> <STANDARD_VALUE>
5000

> <STANDARD_UNITS>
nM

> <Molecular_Weight>
406.86156

$$$$

  SciTegic11272012012D

 36 39  0  0  0  0            999 V2000
   -2.7290    5.6889    0.0000 C   0  0
   -2.1560    5.3613    0.0000 N   0  0
   -1.5859    5.6940    0.0000 C   0  0
   -2.1519    4.5359    0.0000 C   0  0
   -1.4363    4.1254    0.0000 C   0  0
   -1.4339    3.3004    0.0000 C   0  0
   -2.1472    2.8859    0.0000 C   0  0
   -2.1465    2.0605    0.0000 N   0  0
   -2.8608    1.6467    0.0000 C   0  0
   -3.4327    1.9761    0.0000 O   0  0
   -2.8601    0.8213    0.0000 N   0  0
   -3.5744    0.4075    0.0000 C   0  0
   -4.2904    0.8175    0.0000 C   0  0
   -5.0034    0.4025    0.0000 C   0  0
   -5.0005   -0.4225    0.0000 C   0  0
   -5.5710   -0.7544    0.0000 C   0  0
   -4.2846   -0.8325    0.0000 C   0  0
   -4.2801   -1.6579    0.0000 N   0  0
   -3.5632   -2.0672    0.0000 C   0  0
   -3.5575   -2.8922    0.0000 N   0  0
   -2.8402   -3.2997    0.0000 C   0  0
   -2.1285   -2.8823    0.0000 C   0  0
   -2.1343   -2.0573    0.0000 C   0  0
   -2.8516   -1.6497    0.0000 N   0  0
   -1.4223   -1.6397    0.0000 C   0  0
   -0.7043   -2.0460    0.0000 C   0  0
    0.0066   -1.6274    0.0000 C   0  0
   -0.0004   -0.8025    0.0000 C   0  0
   -0.7184   -0.3961    0.0000 N   0  0
   -1.4293   -0.8147    0.0000 C   0  0
   -3.5716   -0.4175    0.0000 C   0  0
   -2.8628    3.2964    0.0000 C   0  0
   -2.8652    4.1213    0.0000 C   0  0
   -4.7549   -1.9354    0.0000 H   0  0
   -2.3835    0.5468    0.0000 H   0  0
   -1.6700    1.7859    0.0000 H   0  0
  1  2  1  0
  2  3  1  0
  2  4  1  0
  4  5  2  0
  5  6  1  0
  6  7  2  0
  7  8  1  0
  7 32  1  0
  8  9  1  0
  8 36  1  0
  9 10  2  0
  9 11  1  0
 11 12  1  0
 11 35  1  0
 12 13  2  0
 13 14  1  0
 14 15  2  0
 15 16  1  0
 15 17  1  0
 17 18  1  0
 17 31  2  0
 18 19  1  0
 18 34  1  0
 19 20  2  0
 20 21  1  0
 21 22  2  0
 22 23  1  0
 23 24  2  0
 23 25  1  0
 24 19  1  0
 25 26  2  0
 26 27  1  0
 27 28  2  0
 28 29  1  0
 29 30  2  0
 30 25  1  0
 31 12  1  0
 32 33  2  0
 33  4  1  0
M  END
> <CMPD_CHEMBLID>
CHEMBL184709

> <STANDARD_TYPE>
IC50

> <RELATION>
>

> <STANDARD_VALUE>
5000

> <STANDARD_UNITS>
nM

> <Molecular_Weight>
439.5123

$$$$

  SciTegic11272012012D

 24 26  0  0  0  0            999 V2000
   -0.1742   -2.8725    0.0000 C   0  0
   -0.3790   -2.2450    0.0000 C   0  0
   -1.0247   -2.1088    0.0000 C   0  0
    0.1713   -1.6316    0.0000 N   0  0
    0.9918   -1.7179    0.0000 N   0  0
    1.3273   -0.9642    0.0000 C   0  0
    2.1348   -0.7925    0.0000 C   0  0
    2.7291   -1.3607    0.0000 C   0  0
    3.5209   -1.1288    0.0000 C   0  0
    3.7159   -0.3272    0.0000 C   0  0
    4.5082   -0.0952    0.0000 C   0  0
    5.1416    0.0903    0.0000 N   0  0
    3.1193    0.2426    0.0000 C   0  0
    3.2754    0.8839    0.0000 F   0  0
    2.3275    0.0107    0.0000 C   0  0
    0.7145   -0.4125    0.0000 C   0  0
    0.7145    0.4125    0.0000 C   0  0
    1.4285    0.8267    0.0000 N   0  0
    0.0000    0.8250    0.0000 N   0  0
   -0.7145    0.4125    0.0000 C   0  0
   -0.7145   -0.4125    0.0000 N   0  0
    0.0000   -0.8250    0.0000 C   0  0
    1.4277    1.3767    0.0000 H   0  0
    1.9053    0.5525    0.0000 H   0  0
  1  2  1  0
  2  3  1  0
  2  4  1  0
  4  5  1  0
  5  6  2  0
  6  7  1  0
  6 16  1  0
  7  8  2  0
  8  9  1  0
  9 10  2  0
 10 11  1  0
 10 13  1  0
 11 12  3  0
 13 14  1  0
 13 15  2  0
 15  7  1  0
 16 17  2  0
 17 18  1  0
 17 19  1  0
 18 23  1  0
 18 24  1  0
 19 20  2  0
 20 21  1  0
 21 22  2  0
 22  4  1  0
 22 16  1  0
M  END
> <CMPD_CHEMBLID>
CHEMBL1241771

> <STANDARD_TYPE>
IC50

> <RELATION>
=

> <STANDARD_VALUE>
5000

> <STANDARD_UNITS>
nM

> <Molecular_Weight>
296.30232

$$$$

  SciTegic11272012012D

 26 29  0  0  0  0            999 V2000
    2.2541   -3.0993    0.0000 C   0  0
    2.6435   -2.5664    0.0000 C   0  0
    3.2996   -2.6374    0.0000 C   0  0
    2.3108   -1.8125    0.0000 N   0  0
    1.5040   -1.6398    0.0000 N   0  0
    1.4293   -0.8252    0.0000 C   0  0
    0.7145   -0.4125    0.0000 C   0  0
    0.7145    0.4125    0.0000 C   0  0
    0.0000    0.8250    0.0000 C   0  0
   -0.7145    0.4125    0.0000 C   0  0
   -1.4290    0.8250    0.0000 N   0  0
   -2.1435    0.4125    0.0000 C   0  0
   -2.7151    0.7425    0.0000 C   0  0
   -2.1435   -0.4125    0.0000 C   0  0
   -1.4290   -0.8250    0.0000 C   0  0
   -0.7145   -0.4125    0.0000 C   0  0
    0.0000   -0.8250    0.0000 C   0  0
    2.1728   -0.4850    0.0000 C   0  0
    2.4289    0.2993    0.0000 C   0  0
    1.8786    0.9146    0.0000 N   0  0
    3.2361    0.4697    0.0000 N   0  0
    3.7873   -0.1443    0.0000 C   0  0
    3.5312   -0.9285    0.0000 N   0  0
    2.7239   -1.0989    0.0000 C   0  0
    2.0501    1.4372    0.0000 H   0  0
    1.3403    0.8020    0.0000 H   0  0
  1  2  1  0
  2  3  1  0
  2  4  1  0
  4  5  1  0
  5  6  2  0
  6  7  1  0
  6 18  1  0
  7  8  2  0
  8  9  1  0
  9 10  2  0
 10 11  1  0
 11 12  2  0
 12 13  1  0
 12 14  1  0
 14 15  2  0
 15 16  1  0
 16 10  1  0
 16 17  2  0
 17  7  1  0
 18 19  2  0
 19 20  1  0
 19 21  1  0
 20 25  1  0
 20 26  1  0
 21 22  2  0
 22 23  1  0
 23 24  2  0
 24  4  1  0
 24 18  1  0
M  END
> <CMPD_CHEMBLID>
CHEMBL1241682

> <STANDARD_TYPE>
IC50

> <RELATION>
=

> <STANDARD_VALUE>
5100

> <STANDARD_UNITS>
nM

> <Molecular_Weight>
318.37572

$$$$

  SciTegic11272012012D

 24 26  0  0  0  0            999 V2000
    1.9982   -1.9833    0.0000 C   0  0
    1.4273   -1.6521    0.0000 O   0  0
    1.4285   -0.8267    0.0000 C   0  0
    2.0006   -0.4977    0.0000 O   0  0
    0.7144   -0.4125    0.0000 C   0  0
    0.7144    0.4125    0.0000 C   0  0
    0.0000    0.8250    0.0000 C   0  0
   -0.7144    0.4125    0.0000 C   0  0
   -0.7144   -0.4125    0.0000 C   0  0
   -1.4285   -0.8267    0.0000 N   0  0
   -1.4273   -1.6521    0.0000 C   0  0
   -2.1403   -2.0672    0.0000 N   0  0
   -2.1375   -2.8922    0.0000 C   0  0
   -1.4216   -3.3022    0.0000 C   0  0
   -0.7086   -2.8872    0.0000 C   0  0
   -0.7114   -2.0622    0.0000 N   0  0
    0.0077   -3.2975    0.0000 C   0  0
    0.0119   -4.1225    0.0000 C   0  0
    0.7285   -4.5314    0.0000 C   0  0
    1.4408   -4.1153    0.0000 C   0  0
    1.4367   -3.2903    0.0000 N   0  0
    0.7201   -2.8814    0.0000 C   0  0
    0.0000   -0.8250    0.0000 C   0  0
   -1.9053   -0.5525    0.0000 H   0  0
  1  2  1  0
  2  3  1  0
  3  4  2  0
  3  5  1  0
  5  6  2  0
  6  7  1  0
  7  8  2  0
  8  9  1  0
  9 10  1  0
  9 23  2  0
 10 11  1  0
 10 24  1  0
 11 12  2  0
 12 13  1  0
 13 14  2  0
 14 15  1  0
 15 16  2  0
 15 17  1  0
 16 11  1  0
 17 18  2  0
 18 19  1  0
 19 20  2  0
 20 21  1  0
 21 22  2  0
 22 17  1  0
 23  5  1  0
M  END
> <CMPD_CHEMBLID>
CHEMBL56671

> <STANDARD_TYPE>
IC50

> <RELATION>
=

> <STANDARD_VALUE>
5100

> <STANDARD_UNITS>
nM

> <Molecular_Weight>
306.31866

$$$$

  SciTegic11272012012D

 35 40  0  0  0  0            999 V2000
   -0.0077   -6.8221    0.0000 O   0  0
   -0.2000   -6.0194    0.0000 C   0  0
    0.3976   -5.4506    0.0000 C   0  0
    0.2038   -4.6487    0.0000 C   0  0
   -0.5876   -4.4155    0.0000 N   0  0
   -1.1852   -4.9844    0.0000 C   0  0
   -0.9914   -5.7863    0.0000 C   0  0
   -0.7828   -3.6135    0.0000 C   0  0
   -0.1861   -3.0438    0.0000 C   0  0
   -0.3810   -2.2449    0.0000 C   0  0
   -1.1730   -2.0103    0.0000 C   0  0
   -1.7696   -2.5800    0.0000 C   0  0
   -1.5745   -3.3817    0.0000 N   0  0
    0.1713   -1.6316    0.0000 C   0  0
    0.9918   -1.7178    0.0000 C   0  0
    1.3273   -0.9641    0.0000 N   0  0
    0.7144   -0.4125    0.0000 C   0  0
    0.7144    0.4125    0.0000 C   0  0
    0.0000    0.8250    0.0000 C   0  0
   -0.7144    0.4125    0.0000 C   0  0
   -0.7144   -0.4125    0.0000 N   0  0
    0.0000   -0.8250    0.0000 N   0  0
   -1.4293    0.8252    0.0000 N   0  0
   -2.1721    0.4825    0.0000 C   0  0
   -2.7250    1.0947    0.0000 C   0  0
   -2.3137    1.8098    0.0000 C   0  0
   -1.5064    1.6395    0.0000 C   0  0
   -0.8906    2.1892    0.0000 C   0  0
   -0.0920    1.9941    0.0000 C   0  0
    0.4779    2.5906    0.0000 C   0  0
    0.2463    3.3824    0.0000 C   0  0
   -0.5553    3.5777    0.0000 C   0  0
   -0.7406    4.2111    0.0000 F   0  0
   -1.1252    2.9812    0.0000 C   0  0
   -0.4066   -7.2008    0.0000 H   0  0
  1  2  1  0
  1 35  1  0
  2  3  1  0
  3  4  1  0
  4  5  1  0
  5  6  1  0
  5  8  1  0
  6  7  1  0
  7  2  1  0
  8  9  2  0
  9 10  1  0
 10 11  2  0
 10 14  1  0
 11 12  1  0
 12 13  2  0
 13  8  1  0
 14 15  2  0
 15 16  1  0
 16 17  2  0
 17 18  1  0
 18 19  2  0
 19 20  1  0
 20 21  2  0
 20 23  1  0
 21 22  1  0
 22 14  1  0
 22 17  1  0
 23 24  1  0
 24 25  1  0
 25 26  1  0
 26 27  1  0
 27 23  1  0
 27 28  1  0
 28 29  2  0
 29 30  1  0
 30 31  2  0
 31 32  1  0
 32 33  1  0
 32 34  2  0
 34 28  1  0
M  END
> <CMPD_CHEMBLID>
CHEMBL3582442

> <STANDARD_TYPE>
IC50

> <RELATION>
=

> <STANDARD_VALUE>
5200

> <STANDARD_UNITS>
nM

> <Molecular_Weight>
458.53058

$$$$

  SciTegic11272012012D

 44 48  0  0  0  0            999 V2000
    1.2861   -0.7425    0.0000 C   0  0
    0.7144   -0.4125    0.0000 C   0  0
    0.7144    0.4125    0.0000 C   0  0
    0.0000    0.8250    0.0000 C   0  0
   -0.7144    0.4125    0.0000 C   0  0
   -1.4302    0.8237    0.0000 N   0  0
   -2.1444    0.4100    0.0000 C   0  0
   -2.1433   -0.2500    0.0000 O   0  0
   -2.8602    0.8213    0.0000 C   0  0
   -3.5747    0.4088    0.0000 C   0  0
   -4.2892    0.8213    0.0000 C   0  0
   -4.2892    1.6463    0.0000 C   0  0
   -3.5747    2.0588    0.0000 C   0  0
   -2.8602    1.6463    0.0000 C   0  0
   -5.0032    2.0604    0.0000 C   0  0
   -5.5754    1.7314    0.0000 O   0  0
   -5.0021    2.8859    0.0000 N   0  0
   -5.7161    3.3001    0.0000 C   0  0
   -6.4306    2.8876    0.0000 C   0  0
   -7.1450    3.3001    0.0000 C   0  0
   -7.1450    4.1251    0.0000 C   0  0
   -6.4306    4.5376    0.0000 C   0  0
   -5.7162    4.1251    0.0000 C   0  0
   -5.0021    4.5393    0.0000 N   0  0
   -0.7144   -0.4125    0.0000 C   0  0
    0.0000   -0.8250    0.0000 C   0  0
   -0.0017   -1.6504    0.0000 N   0  0
   -0.7171   -2.0622    0.0000 C   0  0
   -0.7201   -2.8872    0.0000 N   0  0
   -1.4359   -3.2972    0.0000 C   0  0
   -2.1490   -2.8822    0.0000 C   0  0
   -2.1461   -2.0572    0.0000 C   0  0
   -1.4302   -1.6472    0.0000 N   0  0
   -2.8652   -3.2925    0.0000 C   0  0
   -2.8695   -4.1175    0.0000 C   0  0
   -3.5860   -4.5264    0.0000 C   0  0
   -4.2984   -4.1103    0.0000 C   0  0
   -4.2942   -3.2853    0.0000 N   0  0
   -3.5776   -2.8764    0.0000 C   0  0
    0.4742   -1.9263    0.0000 H   0  0
   -5.0029    5.0893    0.0000 H   0  0
   -4.5253    4.2651    0.0000 H   0  0
   -4.5253    3.1601    0.0000 H   0  0
   -1.4312    1.3737    0.0000 H   0  0
  1  2  1  0
  2  3  2  0
  3  4  1  0
  4  5  2  0
  5  6  1  0
  5 25  1  0
  6  7  1  0
  6 44  1  0
  7  8  2  0
  7  9  1  0
  9 10  2  0
 10 11  1  0
 11 12  2  0
 12 13  1  0
 12 15  1  0
 13 14  2  0
 14  9  1  0
 15 16  2  0
 15 17  1  0
 17 18  1  0
 17 43  1  0
 18 19  2  0
 19 20  1  0
 20 21  2  0
 21 22  1  0
 22 23  2  0
 23 18  1  0
 23 24  1  0
 24 41  1  0
 24 42  1  0
 25 26  2  0
 26  2  1  0
 26 27  1  0
 27 28  1  0
 27 40  1  0
 28 29  2  0
 29 30  1  0
 30 31  2  0
 31 32  1  0
 31 34  1  0
 32 33  2  0
 33 28  1  0
 34 35  2  0
 35 36  1  0
 36 37  2  0
 37 38  1  0
 38 39  2  0
 39 34  1  0
M  END
> <CMPD_CHEMBLID>
CHEMBL475820

> <STANDARD_TYPE>
IC50

> <RELATION>
=

> <STANDARD_VALUE>
5300

> <STANDARD_UNITS>
nM

> <Molecular_Weight>
515.5652

$$$$

  SciTegic11272012012D

 42 46  0  0  0  0            999 V2000
    0.7006   -5.3613    0.0000 O   0  0
    0.7037   -4.5359    0.0000 N   0  0
    1.4198   -4.1253    0.0000 C   0  0
    1.9902   -4.4572    0.0000 O   0  0
    1.4227   -3.2999    0.0000 C   0  0
    2.1388   -2.8893    0.0000 C   0  0
    2.1419   -2.0639    0.0000 C   0  0
    2.8570   -1.6525    0.0000 C   0  0
    2.8583   -0.8275    0.0000 C   0  0
    2.1445   -0.4139    0.0000 C   0  0
    1.4293   -0.8252    0.0000 C   0  0
    1.4281   -1.6502    0.0000 C   0  0
    0.7144   -0.4125    0.0000 C   0  0
    0.7144    0.4125    0.0000 C   0  0
    0.0000    0.8250    0.0000 C   0  0
   -0.7144    0.4125    0.0000 C   0  0
   -1.4290    0.8250    0.0000 N   0  0
   -2.1434    0.4125    0.0000 C   0  0
   -2.1434   -0.4125    0.0000 N   0  0
   -1.4290   -0.8250    0.0000 C   0  0
   -1.4306   -1.6504    0.0000 N   0  0
   -2.1461   -2.0622    0.0000 C   0  0
   -2.1490   -2.8872    0.0000 C   0  0
   -2.8649   -3.2972    0.0000 C   0  0
   -3.5779   -2.8823    0.0000 C   0  0
   -4.2933   -3.2940    0.0000 O   0  0
   -4.2950   -4.1194    0.0000 C   0  0
   -5.0104   -4.5312    0.0000 C   0  0
   -5.0134   -5.3562    0.0000 C   0  0
   -5.7292   -5.7662    0.0000 C   0  0
   -6.4423   -5.3513    0.0000 C   0  0
   -6.4394   -4.5263    0.0000 C   0  0
   -7.0099   -4.1943    0.0000 F   0  0
   -5.7236   -4.1162    0.0000 C   0  0
   -3.5751   -2.0573    0.0000 C   0  0
   -4.1455   -1.7253    0.0000 Cl  0  0
   -2.8592   -1.6472    0.0000 C   0  0
   -0.7144   -0.4125    0.0000 C   0  0
    0.0000   -0.8250    0.0000 C   0  0
   -0.9548   -1.9263    0.0000 H   0  0
    0.2282   -4.2593    0.0000 H   0  0
    0.2235   -5.6349    0.0000 H   0  0
  1  2  1  0
  1 42  1  0
  2  3  1  0
  2 41  1  0
  3  4  2  0
  3  5  1  0
  5  6  2  0
  6  7  1  0
  7  8  2  0
  8  9  1  0
  9 10  2  0
 10 11  1  0
 11 12  2  0
 11 13  1  0
 12  7  1  0
 13 14  2  0
 14 15  1  0
 15 16  2  0
 16 17  1  0
 17 18  2  0
 18 19  1  0
 19 20  2  0
 20 21  1  0
 20 38  1  0
 21 22  1  0
 21 40  1  0
 22 23  2  0
 23 24  1  0
 24 25  2  0
 25 26  1  0
 25 35  1  0
 26 27  1  0
 27 28  1  0
 28 29  2  0
 29 30  1  0
 30 31  2  0
 31 32  1  0
 32 33  1  0
 32 34  2  0
 34 28  1  0
 35 36  1  0
 35 37  2  0
 37 22  1  0
 38 16  1  0
 38 39  2  0
 39 13  1  0
M  END
> <CMPD_CHEMBLID>
CHEMBL1630109

> <STANDARD_TYPE>
IC50

> <RELATION>
=

> <STANDARD_VALUE>
5300

> <STANDARD_UNITS>
nM

> <Molecular_Weight>
540.97208

$$$$

  SciTegic11272012012D

 35 39  0  0  0  0            999 V2000
    0.8523   -2.9680    0.0000 O   0  0
    1.4227   -3.2999    0.0000 C   0  0
    2.1388   -2.8893    0.0000 N   0  0
    2.1419   -2.0639    0.0000 C   0  0
    2.8570   -1.6525    0.0000 C   0  0
    2.8583   -0.8275    0.0000 C   0  0
    2.1445   -0.4139    0.0000 C   0  0
    1.4293   -0.8252    0.0000 C   0  0
    1.4281   -1.6502    0.0000 C   0  0
    0.7144   -0.4125    0.0000 C   0  0
    0.7144    0.4125    0.0000 C   0  0
    0.0000    0.8250    0.0000 N   0  0
   -0.7144    0.4125    0.0000 C   0  0
   -0.7144   -0.4125    0.0000 C   0  0
   -1.4290   -0.8250    0.0000 C   0  0
   -1.4290   -1.6500    0.0000 C   0  0
   -0.7144   -2.0625    0.0000 C   0  0
    0.0000   -1.6500    0.0000 C   0  0
    0.0000   -0.8250    0.0000 C   0  0
    1.4198   -4.1253    0.0000 C   0  0
    2.1336   -4.5390    0.0000 C   0  0
    2.1322   -5.3640    0.0000 C   0  0
    1.4171   -5.7754    0.0000 C   0  0
    0.7033   -5.3617    0.0000 C   0  0
    0.7046   -4.5367    0.0000 C   0  0
   -0.0104   -4.1243    0.0000 N   0  0
   -0.7253   -4.5369    0.0000 C   0  0
   -1.4404   -4.1246    0.0000 C   0  0
   -2.1556   -4.5360    0.0000 C   0  0
   -2.8694   -4.1224    0.0000 C   0  0
   -2.8681   -3.2974    0.0000 N   0  0
   -2.1530   -2.8860    0.0000 C   0  0
   -1.4392   -3.2996    0.0000 C   0  0
   -0.0105   -3.5743    0.0000 H   0  0
    2.6143   -3.1659    0.0000 H   0  0
  1  2  2  0
  2  3  1  0
  2 20  1  0
  3  4  1  0
  3 35  1  0
  4  5  2  0
  5  6  1  0
  6  7  2  0
  7  8  1  0
  8  9  2  0
  8 10  1  0
  9  4  1  0
 10 11  2  0
 11 12  1  0
 12 13  2  0
 13 14  1  0
 14 15  2  0
 15 16  1  0
 16 17  2  0
 17 18  1  0
 18 19  2  0
 19 10  1  0
 19 14  1  0
 20 21  2  0
 21 22  1  0
 22 23  2  0
 23 24  1  0
 24 25  2  0
 25 20  1  0
 25 26  1  0
 26 27  1  0
 26 34  1  0
 27 28  1  0
 28 29  2  0
 29 30  1  0
 30 31  2  0
 31 32  1  0
 32 33  2  0
 33 28  1  0
M  END
> <CMPD_CHEMBLID>
CHEMBL347537

> <STANDARD_TYPE>
IC50

> <RELATION>
=

> <STANDARD_VALUE>
5330

> <STANDARD_UNITS>
nM

> <Molecular_Weight>
430.50048

$$$$

  SciTegic11272012012D

 29 32  0  0  0  0            999 V2000
   -2.0134   -4.5941    0.0000 C   0  0
   -2.1704   -3.9530    0.0000 O   0  0
   -1.5746   -3.3817    0.0000 C   0  0
   -0.7828   -3.6136    0.0000 C   0  0
   -0.1861   -3.0438    0.0000 C   0  0
   -0.3810   -2.2450    0.0000 C   0  0
   -1.1730   -2.0103    0.0000 C   0  0
   -1.7697   -2.5801    0.0000 C   0  0
   -2.4031   -2.3946    0.0000 C   0  0
    0.1713   -1.6316    0.0000 C   0  0
    0.9918   -1.7178    0.0000 N   0  0
    1.3273   -0.9642    0.0000 N   0  0
    2.1337   -0.7943    0.0000 C   0  0
    2.6853   -1.4085    0.0000 C   0  0
    3.4929   -1.2396    0.0000 C   0  0
    4.0429   -1.8545    0.0000 C   0  0
    3.7854   -2.6383    0.0000 N   0  0
    2.9779   -2.8072    0.0000 C   0  0
    2.4279   -2.1923    0.0000 C   0  0
    0.7145   -0.4125    0.0000 C   0  0
    0.7145    0.4125    0.0000 N   0  0
    0.0000    0.8250    0.0000 C   0  0
   -0.7145    0.4125    0.0000 N   0  0
   -0.7145   -0.4125    0.0000 C   0  0
   -1.4302   -0.8238    0.0000 N   0  0
    0.0000   -0.8250    0.0000 C   0  0
   -1.9062   -0.5481    0.0000 H   0  0
   -1.4312   -1.3738    0.0000 H   0  0
    4.1521   -3.0483    0.0000 H   0  0
  1  2  1  0
  2  3  1  0
  3  4  2  0
  4  5  1  0
  5  6  2  0
  6  7  1  0
  6 10  1  0
  7  8  2  0
  8  3  1  0
  8  9  1  0
 10 11  2  0
 11 12  1  0
 12 13  1  0
 12 20  1  0
 13 14  1  0
 14 15  1  0
 15 16  1  0
 16 17  1  0
 17 18  1  0
 17 29  1  0
 18 19  1  0
 19 14  1  0
 20 21  2  0
 21 22  1  0
 22 23  2  0
 23 24  1  0
 24 25  1  0
 24 26  2  0
 25 27  1  0
 25 28  1  0
 26 10  1  0
 26 20  1  0
M  END
> <CMPD_CHEMBLID>
CHEMBL2030558

> <STANDARD_TYPE>
Ki

> <RELATION>
=

> <STANDARD_VALUE>
5500

> <STANDARD_UNITS>
nM

> <Molecular_Weight>
352.43346

$$$$

  SciTegic11272012012D

 28 30  0  0  0  0            999 V2000
    0.8551   -1.9812    0.0000 C   0  0
    1.4273   -1.6521    0.0000 N   0  0
    1.4285   -0.8267    0.0000 C   0  0
    0.7144   -0.4125    0.0000 C   0  0
    0.7144    0.4125    0.0000 C   0  0
    0.0000    0.8250    0.0000 C   0  0
   -0.7144    0.4125    0.0000 C   0  0
   -0.7144   -0.4125    0.0000 C   0  0
    0.0000   -0.8250    0.0000 C   0  0
    2.1413   -2.0663    0.0000 C   0  0
    2.7135   -1.7373    0.0000 O   0  0
    2.1402   -2.8918    0.0000 C   0  0
    2.8532   -3.3068    0.0000 C   0  0
    2.8503   -4.1318    0.0000 C   0  0
    2.1344   -4.5418    0.0000 C   0  0
    1.4214   -4.1269    0.0000 C   0  0
    1.4242   -3.3019    0.0000 C   0  0
    2.1316   -5.3673    0.0000 S   0  0
    1.5588   -5.6951    0.0000 O   0  0
    2.1290   -6.0273    0.0000 O   0  0
    2.8448   -5.7829    0.0000 N   0  0
    2.8419   -6.6084    0.0000 C   0  0
    3.5541   -7.0249    0.0000 C   0  0
    3.5495   -7.8498    0.0000 C   0  0
    2.8328   -8.2584    0.0000 C   0  0
    2.1206   -7.8420    0.0000 C   0  0
    2.1251   -7.0170    0.0000 C   0  0
    3.3221   -5.5097    0.0000 H   0  0
  1  2  1  0
  2  3  1  0
  2 10  1  0
  3  4  1  0
  4  5  2  0
  5  6  1  0
  6  7  2  0
  7  8  1  0
  8  9  2  0
  9  4  1  0
 10 11  2  0
 10 12  1  0
 12 13  2  0
 13 14  1  0
 14 15  2  0
 15 16  1  0
 15 18  1  0
 16 17  2  0
 17 12  1  0
 18 19  2  0
 18 20  2  0
 18 21  1  0
 21 22  1  0
 21 28  1  0
 22 23  2  0
 23 24  1  0
 24 25  2  0
 25 26  1  0
 26 27  2  0
 27 22  1  0
M  END
> <CMPD_CHEMBLID>
CHEMBL3355482

> <STANDARD_TYPE>
IC50

> <RELATION>
=

> <STANDARD_VALUE>
5600

> <STANDARD_UNITS>
nM

> <Molecular_Weight>
380.4601

$$$$

  SciTegic11272012012D

 44 48  0  0  0  0            999 V2000
    0.2263   -4.5662    0.0000 C   0  0
   -0.4193   -4.4288    0.0000 C   0  0
   -0.9714   -5.0419    0.0000 C   0  0
   -1.7784   -4.8702    0.0000 C   0  0
   -2.0332   -4.0855    0.0000 C   0  0
   -2.8402   -3.9121    0.0000 N   0  0
   -3.0941   -3.1267    0.0000 C   0  0
   -2.6515   -2.6371    0.0000 O   0  0
   -3.9011   -2.9533    0.0000 C   0  0
   -4.1559   -2.1686    0.0000 C   0  0
   -4.9628   -1.9969    0.0000 C   0  0
   -5.5150   -2.6100    0.0000 C   0  0
   -5.2602   -3.3946    0.0000 C   0  0
   -4.4533   -3.5663    0.0000 C   0  0
   -5.8126   -4.0079    0.0000 C   0  0
   -6.4583   -3.8710    0.0000 F   0  0
   -5.6086   -4.6356    0.0000 F   0  0
   -6.2541   -4.4985    0.0000 F   0  0
   -1.4810   -3.4726    0.0000 C   0  0
   -0.6741   -3.6442    0.0000 C   0  0
   -0.1229   -3.0297    0.0000 C   0  0
   -0.3789   -2.2450    0.0000 C   0  0
    0.1713   -1.6316    0.0000 N   0  0
    0.9918   -1.7178    0.0000 C   0  0
    1.3273   -0.9641    0.0000 N   0  0
    0.7144   -0.4125    0.0000 C   0  0
    0.7144    0.4125    0.0000 C   0  0
    1.4285    0.8267    0.0000 N   0  0
    1.4273    1.6521    0.0000 C   0  0
    2.1403    2.0672    0.0000 C   0  0
    2.1375    2.8922    0.0000 C   0  0
    1.4216    3.3022    0.0000 C   0  0
    0.7086    2.8872    0.0000 C   0  0
    0.7114    2.0622    0.0000 C   0  0
    1.4187    4.1276    0.0000 P   0  0
    1.9889    4.4600    0.0000 O   0  0
    0.8459    4.4555    0.0000 C   0  0
    1.4161    4.7876    0.0000 C   0  0
    0.0000    0.8250    0.0000 N   0  0
   -0.7144    0.4125    0.0000 C   0  0
   -0.7144   -0.4125    0.0000 N   0  0
    0.0000   -0.8250    0.0000 C   0  0
    1.9052    0.5525    0.0000 H   0  0
   -3.2090   -4.3202    0.0000 H   0  0
  1  2  1  0
  2  3  2  0
  3  4  1  0
  4  5  2  0
  5  6  1  0
  5 19  1  0
  6  7  1  0
  6 44  1  0
  7  8  2  0
  7  9  1  0
  9 10  2  0
 10 11  1  0
 11 12  2  0
 12 13  1  0
 13 14  2  0
 13 15  1  0
 14  9  1  0
 15 16  1  0
 15 17  1  0
 15 18  1  0
 19 20  2  0
 20  2  1  0
 20 21  1  0
 21 22  2  0
 22 23  1  0
 23 24  1  0
 24 25  2  0
 25 26  1  0
 26 27  2  0
 27 28  1  0
 27 39  1  0
 28 29  1  0
 28 43  1  0
 29 30  2  0
 30 31  1  0
 31 32  2  0
 32 33  1  0
 32 35  1  0
 33 34  2  0
 34 29  1  0
 35 36  2  0
 35 37  1  0
 35 38  1  0
 39 40  2  0
 40 41  1  0
 41 42  2  0
 42 23  1  0
 42 26  1  0
M  END
> <CMPD_CHEMBLID>
CHEMBL554084

> <STANDARD_TYPE>
IC50

> <RELATION>
=

> <STANDARD_VALUE>
5700

> <STANDARD_UNITS>
nM

> <Molecular_Weight>
590.53541

$$$$

  SciTegic11272012012D

 29 32  0  0  0  0            999 V2000
   -0.2704   -2.1220    0.0000 C   0  0
    0.1713   -1.6316    0.0000 C   0  0
    0.9918   -1.7178    0.0000 N   0  0
    1.3273   -0.9642    0.0000 N   0  0
    1.9729   -0.8269    0.0000 C   0  0
    0.7145   -0.4125    0.0000 C   0  0
    0.7145    0.4125    0.0000 N   0  0
    0.0000    0.8250    0.0000 N   0  0
   -0.7145    0.4125    0.0000 C   0  0
   -1.4302    0.8237    0.0000 N   0  0
   -2.1445    0.4100    0.0000 C   0  0
   -2.8604    0.8200    0.0000 C   0  0
   -3.5735    0.4050    0.0000 C   0  0
   -3.5707   -0.4200    0.0000 C   0  0
   -2.8547   -0.8300    0.0000 C   0  0
   -2.1417   -0.4150    0.0000 C   0  0
   -4.2841   -0.8352    0.0000 S   0  0
   -4.2816   -1.4952    0.0000 O   0  0
   -3.7113   -1.1631    0.0000 O   0  0
   -5.0006   -0.4254    0.0000 N   0  0
   -5.7134   -0.8408    0.0000 C   0  0
   -6.4296   -0.4313    0.0000 C   0  0
   -6.4330    0.3938    0.0000 N   0  0
   -5.7202    0.8092    0.0000 C   0  0
   -5.0040    0.3996    0.0000 C   0  0
   -0.7145   -0.4125    0.0000 N   0  0
    0.0000   -0.8250    0.0000 C   0  0
   -6.9104    0.6668    0.0000 H   0  0
   -1.4312    1.3738    0.0000 H   0  0
  1  2  1  0
  2  3  2  0
  3  4  1  0
  4  5  1  0
  4  6  1  0
  6  7  2  0
  7  8  1  0
  8  9  2  0
  9 10  1  0
  9 26  1  0
 10 11  1  0
 10 29  1  0
 11 12  2  0
 12 13  1  0
 13 14  2  0
 14 15  1  0
 14 17  1  0
 15 16  2  0
 16 11  1  0
 17 18  2  0
 17 19  2  0
 17 20  1  0
 20 21  1  0
 21 22  1  0
 22 23  1  0
 23 24  1  0
 23 28  1  0
 24 25  1  0
 25 20  1  0
 26 27  2  0
 27  2  1  0
 27  6  1  0
M  END
> <CMPD_CHEMBLID>
CHEMBL3237850

> <STANDARD_TYPE>
IC50

> <RELATION>
=

> <STANDARD_VALUE>
5800

> <STANDARD_UNITS>
nM

> <Molecular_Weight>
388.4474

$$$$

  SciTegic11272012012D

 26 28  0  0  0  0            999 V2000
    0.8551   -1.9812    0.0000 C   0  0
    1.4273   -1.6521    0.0000 C   0  0
    1.9982   -1.9833    0.0000 O   0  0
    1.4285   -0.8267    0.0000 N   0  0
    0.7145   -0.4125    0.0000 C   0  0
    0.7145    0.4125    0.0000 C   0  0
    0.0000    0.8250    0.0000 C   0  0
   -0.7145    0.4125    0.0000 C   0  0
   -1.2861    0.7425    0.0000 C   0  0
   -0.7145   -0.4125    0.0000 C   0  0
   -1.4285   -0.8267    0.0000 N   0  0
   -1.4273   -1.6521    0.0000 C   0  0
   -2.1403   -2.0672    0.0000 N   0  0
   -2.1375   -2.8922    0.0000 C   0  0
   -1.4216   -3.3022    0.0000 C   0  0
   -0.7086   -2.8872    0.0000 C   0  0
   -0.7114   -2.0622    0.0000 N   0  0
    0.0077   -3.2975    0.0000 C   0  0
    0.0119   -4.1225    0.0000 C   0  0
    0.7285   -4.5314    0.0000 C   0  0
    1.4408   -4.1153    0.0000 C   0  0
    1.4367   -3.2903    0.0000 N   0  0
    0.7201   -2.8814    0.0000 C   0  0
    0.0000   -0.8250    0.0000 C   0  0
   -1.9053   -0.5525    0.0000 H   0  0
    1.9053   -0.5525    0.0000 H   0  0
  1  2  1  0
  2  3  2  0
  2  4  1  0
  4  5  1  0
  4 26  1  0
  5  6  2  0
  6  7  1  0
  7  8  2  0
  8  9  1  0
  8 10  1  0
 10 11  1  0
 10 24  2  0
 11 12  1  0
 11 25  1  0
 12 13  2  0
 13 14  1  0
 14 15  2  0
 15 16  1  0
 16 17  2  0
 16 18  1  0
 17 12  1  0
 18 19  2  0
 19 20  1  0
 20 21  2  0
 21 22  1  0
 22 23  2  0
 23 18  1  0
 24  5  1  0
M  END
> <CMPD_CHEMBLID>
CHEMBL423288

> <STANDARD_TYPE>
IC50

> <RELATION>
=

> <STANDARD_VALUE>
5800

> <STANDARD_UNITS>
nM

> <Molecular_Weight>
319.36048

$$$$

  SciTegic11272012012D

 29 32  0  0  0  0            999 V2000
    1.4302   -0.8237    0.0000 N   0  0
    0.7144   -0.4125    0.0000 C   0  0
    0.7144    0.4125    0.0000 N   0  0
    0.0000    0.8250    0.0000 C   0  0
   -0.7144    0.4125    0.0000 N   0  0
   -0.7144   -0.4125    0.0000 C   0  0
    0.0000   -0.8250    0.0000 C   0  0
   -0.1713   -1.6316    0.0000 C   0  0
   -0.9918   -1.7178    0.0000 N   0  0
   -1.3273   -0.9641    0.0000 N   0  0
   -2.1337   -0.7943    0.0000 C   0  0
   -2.6852   -1.4084    0.0000 C   0  0
   -3.4928   -1.2396    0.0000 C   0  0
   -4.0428   -1.8545    0.0000 C   0  0
   -3.7853   -2.6383    0.0000 N   0  0
   -2.9778   -2.8072    0.0000 C   0  0
   -2.4277   -2.1922    0.0000 C   0  0
    0.3811   -2.2449    0.0000 C   0  0
    1.1959   -2.1344    0.0000 C   0  0
    1.7002   -2.7873    0.0000 C   0  0
    1.3870   -3.5505    0.0000 C   0  0
    1.7905   -4.0728    0.0000 F   0  0
    0.5694   -3.6609    0.0000 C   0  0
    0.2544   -4.4239    0.0000 O   0  0
    0.0651   -3.0080    0.0000 C   0  0
   -0.2907   -4.4966    0.0000 H   0  0
   -4.1520   -3.0482    0.0000 H   0  0
    1.9061   -0.5481    0.0000 H   0  0
    1.4311   -1.3737    0.0000 H   0  0
  1  2  1  0
  1 28  1  0
  1 29  1  0
  2  3  2  0
  3  4  1  0
  4  5  2  0
  5  6  1  0
  6  7  2  0
  7  2  1  0
  7  8  1  0
  8  9  2  0
  8 18  1  0
  9 10  1  0
 10  6  1  0
 10 11  1  0
 11 12  1  0
 12 13  1  0
 13 14  1  0
 14 15  1  0
 15 16  1  0
 15 27  1  0
 16 17  1  0
 17 12  1  0
 18 19  2  0
 19 20  1  0
 20 21  2  0
 21 22  1  0
 21 23  1  0
 23 24  1  0
 23 25  2  0
 24 26  1  0
 25 18  1  0
M  END
> <CMPD_CHEMBLID>
CHEMBL1242844

> <STANDARD_TYPE>
IC50

> <RELATION>
=

> <STANDARD_VALUE>
5842

> <STANDARD_UNITS>
nM

> <Molecular_Weight>
342.37076

$$$$

  SciTegic11272012012D

 30 33  0  0  0  0            999 V2000
   -0.2704   -2.1220    0.0000 C   0  0
    0.1713   -1.6316    0.0000 C   0  0
    0.9918   -1.7178    0.0000 N   0  0
    1.3273   -0.9641    0.0000 N   0  0
    1.9729   -0.8269    0.0000 C   0  0
    0.7144   -0.4125    0.0000 C   0  0
    0.7144    0.4125    0.0000 N   0  0
    0.0000    0.8250    0.0000 N   0  0
   -0.7144    0.4125    0.0000 C   0  0
   -1.4302    0.8237    0.0000 N   0  0
   -2.1444    0.4100    0.0000 C   0  0
   -2.8604    0.8200    0.0000 C   0  0
   -3.5734    0.4050    0.0000 C   0  0
   -3.5706   -0.4200    0.0000 C   0  0
   -2.8546   -0.8300    0.0000 C   0  0
   -2.1416   -0.4150    0.0000 C   0  0
   -4.2840   -0.8352    0.0000 S   0  0
   -4.2815   -1.4952    0.0000 O   0  0
   -3.7112   -1.1631    0.0000 O   0  0
   -5.0005   -0.4254    0.0000 N   0  0
   -5.6882   -0.8884    0.0000 C   0  0
   -6.4775   -0.6484    0.0000 C   0  0
   -6.7820    0.1183    0.0000 C   0  0
   -6.3725    0.8345    0.0000 N   0  0
   -5.5572    0.9607    0.0000 C   0  0
   -4.9501    0.4020    0.0000 C   0  0
   -0.7144   -0.4125    0.0000 N   0  0
    0.0000   -0.8250    0.0000 C   0  0
   -6.6842    1.2876    0.0000 H   0  0
   -1.4311    1.3737    0.0000 H   0  0
  1  2  1  0
  2  3  2  0
  3  4  1  0
  4  5  1  0
  4  6  1  0
  6  7  2  0
  7  8  1  0
  8  9  2  0
  9 10  1  0
  9 27  1  0
 10 11  1  0
 10 30  1  0
 11 12  2  0
 12 13  1  0
 13 14  2  0
 14 15  1  0
 14 17  1  0
 15 16  2  0
 16 11  1  0
 17 18  2  0
 17 19  2  0
 17 20  1  0
 20 21  1  0
 21 22  1  0
 22 23  1  0
 23 24  1  0
 24 25  1  0
 24 29  1  0
 25 26  1  0
 26 20  1  0
 27 28  2  0
 28  2  1  0
 28  6  1  0
M  END
> <CMPD_CHEMBLID>
CHEMBL3237852

> <STANDARD_TYPE>
IC50

> <RELATION>
=

> <STANDARD_VALUE>
5900

> <STANDARD_UNITS>
nM

> <Molecular_Weight>
402.47398

$$$$

  SciTegic11272012012D

 31 34  0  0  0  0            999 V2000
    2.8661    1.4822    0.0000 C   0  0
    2.8637    0.8221    0.0000 C   0  0
    2.1475    0.4116    0.0000 O   0  0
    2.1445   -0.4139    0.0000 C   0  0
    2.8583   -0.8275    0.0000 C   0  0
    2.8570   -1.6525    0.0000 C   0  0
    2.1419   -2.0639    0.0000 C   0  0
    1.4281   -1.6502    0.0000 C   0  0
    1.4293   -0.8252    0.0000 C   0  0
    0.7145   -0.4125    0.0000 C   0  0
    0.7145    0.4125    0.0000 N   0  0
    0.0000    0.8250    0.0000 N   0  0
   -0.7145    0.4125    0.0000 C   0  0
   -0.7145   -0.4125    0.0000 C   0  0
    0.0000   -0.8250    0.0000 N   0  0
   -1.4987   -0.6674    0.0000 C   0  0
   -1.7025   -1.2952    0.0000 C   0  0
   -1.9836    0.0000    0.0000 N   0  0
   -1.4987    0.6674    0.0000 N   0  0
   -1.7025    1.2952    0.0000 C   0  0
    2.1406   -2.8893    0.0000 S   0  0
    1.5684   -3.2182    0.0000 O   0  0
    1.5695   -2.5583    0.0000 O   0  0
    2.8545   -3.3037    0.0000 N   0  0
    2.7989   -4.1308    0.0000 C   0  0
    3.4024   -4.6932    0.0000 C   0  0
    4.2185   -4.5721    0.0000 C   0  0
    4.6326   -3.8586    0.0000 N   0  0
    4.3329   -3.0899    0.0000 C   0  0
    3.5451   -2.8450    0.0000 C   0  0
    5.1810   -3.9009    0.0000 H   0  0
  1  2  1  0
  2  3  1  0
  3  4  1  0
  4  5  2  0
  5  6  1  0
  6  7  2  0
  7  8  1  0
  7 21  1  0
  8  9  2  0
  9  4  1  0
  9 10  1  0
 10 11  2  0
 11 12  1  0
 12 13  2  0
 13 14  1  0
 14 15  2  0
 14 16  1  0
 15 10  1  0
 16 17  1  0
 16 18  2  0
 18 19  1  0
 19 13  1  0
 19 20  1  0
 21 22  2  0
 21 23  2  0
 21 24  1  0
 24 25  1  0
 25 26  1  0
 26 27  1  0
 27 28  1  0
 28 29  1  0
 28 31  1  0
 29 30  1  0
 30 24  1  0
M  END
> <CMPD_CHEMBLID>
CHEMBL3261392

> <STANDARD_TYPE>
IC50

> <RELATION>
=

> <STANDARD_VALUE>
5900

> <STANDARD_UNITS>
nM

> <Molecular_Weight>
431.5119

$$$$

  SciTegic11272012012D

 30 33  0  0  0  0            999 V2000
    5.0005    0.4254    0.0000 N   0  0
    4.2840    0.8352    0.0000 S   0  0
    4.2815    1.4952    0.0000 O   0  0
    4.8543    1.1674    0.0000 O   0  0
    3.5706    0.4200    0.0000 C   0  0
    3.5735   -0.4050    0.0000 C   0  0
    2.8604   -0.8200    0.0000 C   0  0
    2.1444   -0.4100    0.0000 C   0  0
    1.4302   -0.8237    0.0000 N   0  0
    0.7144   -0.4125    0.0000 C   0  0
    0.7144    0.4125    0.0000 N   0  0
    0.0000    0.8250    0.0000 C   0  0
   -0.7144    0.4125    0.0000 N   0  0
   -0.7144   -0.4125    0.0000 C   0  0
   -1.3273   -0.9641    0.0000 N   0  0
   -0.9918   -1.7178    0.0000 C   0  0
   -0.1713   -1.6316    0.0000 N   0  0
    0.0000   -0.8250    0.0000 C   0  0
    0.0000    1.6504    0.0000 N   0  0
    0.7138    2.0641    0.0000 C   0  0
    0.7125    2.8891    0.0000 C   0  0
   -0.0026    3.3005    0.0000 O   0  0
   -0.7164    2.8868    0.0000 C   0  0
   -0.7151    2.0618    0.0000 C   0  0
    2.1416    0.4150    0.0000 C   0  0
    2.8547    0.8300    0.0000 C   0  0
   -1.8653   -0.8497    0.0000 H   0  0
    1.4312   -1.3737    0.0000 H   0  0
    5.4759    0.7020    0.0000 H   0  0
    5.0026   -0.1246    0.0000 H   0  0
  1  2  1  0
  1 29  1  0
  1 30  1  0
  2  3  2  0
  2  4  2  0
  2  5  1  0
  5  6  2  0
  6  7  1  0
  7  8  2  0
  8  9  1  0
  8 25  1  0
  9 10  1  0
  9 28  1  0
 10 11  2  0
 11 12  1  0
 12 13  2  0
 12 19  1  0
 13 14  1  0
 14 15  1  0
 15 16  1  0
 15 27  1  0
 16 17  2  0
 17 18  1  0
 18 10  1  0
 18 14  2  0
 19 20  1  0
 20 21  1  0
 21 22  1  0
 22 23  1  0
 23 24  1  0
 24 19  1  0
 25 26  2  0
 26  5  1  0
M  END
> <CMPD_CHEMBLID>
CHEMBL1172957

> <STANDARD_TYPE>
IC50

> <RELATION>
=

> <STANDARD_VALUE>
6000

> <STANDARD_UNITS>
nM

> <Molecular_Weight>
375.40558

$$$$

  SciTegic11272012012D

 26 28  0  0  0  0            999 V2000
    0.3639   -5.2871    0.0000 C   0  0
    0.2065   -4.6461    0.0000 C   0  0
   -0.5860   -4.4152    0.0000 O   0  0
   -0.7828   -3.6136    0.0000 C   0  0
   -0.1861   -3.0438    0.0000 C   0  0
   -0.3810   -2.2450    0.0000 C   0  0
   -1.1730   -2.0103    0.0000 C   0  0
   -1.7697   -2.5801    0.0000 C   0  0
   -1.5746   -3.3817    0.0000 C   0  0
   -2.1728   -3.9506    0.0000 O   0  0
   -2.8059   -3.7642    0.0000 C   0  0
    0.1713   -1.6316    0.0000 C   0  0
    0.9918   -1.7179    0.0000 N   0  0
    1.3273   -0.9642    0.0000 N   0  0
    2.1337   -0.7943    0.0000 C   0  0
    2.5748   -1.2854    0.0000 C   0  0
    2.3387   -0.1669    0.0000 C   0  0
    0.7145   -0.4125    0.0000 C   0  0
    0.7145    0.4125    0.0000 N   0  0
    0.0000    0.8250    0.0000 C   0  0
   -0.7145    0.4125    0.0000 N   0  0
   -0.7145   -0.4125    0.0000 C   0  0
   -1.4302   -0.8238    0.0000 N   0  0
    0.0000   -0.8250    0.0000 C   0  0
   -1.9062   -0.5481    0.0000 H   0  0
   -1.4312   -1.3738    0.0000 H   0  0
  1  2  1  0
  2  3  1  0
  3  4  1  0
  4  5  2  0
  5  6  1  0
  6  7  2  0
  6 12  1  0
  7  8  1  0
  8  9  2  0
  9  4  1  0
  9 10  1  0
 10 11  1  0
 12 13  2  0
 13 14  1  0
 14 15  1  0
 14 18  1  0
 15 16  1  0
 15 17  1  0
 18 19  2  0
 19 20  1  0
 20 21  2  0
 21 22  1  0
 22 23  1  0
 22 24  2  0
 23 25  1  0
 23 26  1  0
 24 12  1  0
 24 18  1  0
M  END
> <CMPD_CHEMBLID>
CHEMBL1242752

> <STANDARD_TYPE>
IC50

> <RELATION>
=

> <STANDARD_VALUE>
6000

> <STANDARD_UNITS>
nM

> <Molecular_Weight>
327.38094

$$$$

  SciTegic11272012012D

 46 51  0  0  0  0            999 V2000
    1.1818   -4.5691    0.0000 N   0  0
    2.0028   -4.6550    0.0000 C   0  0
    2.3371   -5.4092    0.0000 C   0  0
    3.1574   -5.4968    0.0000 C   0  0
    3.6434   -4.8301    0.0000 C   0  0
    3.3091   -4.0759    0.0000 C   0  0
    2.4888   -3.9883    0.0000 C   0  0
    2.1557   -3.2330    0.0000 N   0  0
    2.6430   -2.5666    0.0000 C   0  0
    3.2991   -2.6378    0.0000 O   0  0
    2.3105   -1.8126    0.0000 C   0  0
    2.7242   -1.0988    0.0000 C   0  0
    2.1731   -0.4848    0.0000 C   0  0
    1.4293   -0.8252    0.0000 C   0  0
    1.5039   -1.6398    0.0000 S   0  0
    0.7144   -0.4125    0.0000 C   0  0
    0.7144    0.4125    0.0000 C   0  0
    0.0000    0.8250    0.0000 C   0  0
   -0.7144    0.4125    0.0000 C   0  0
   -1.4290    0.8250    0.0000 N   0  0
   -2.1434    0.4125    0.0000 C   0  0
   -2.1434   -0.4125    0.0000 N   0  0
   -1.4290   -0.8250    0.0000 C   0  0
   -1.4306   -1.6504    0.0000 N   0  0
   -2.1461   -2.0622    0.0000 C   0  0
   -2.1490   -2.8872    0.0000 C   0  0
   -2.8649   -3.2972    0.0000 C   0  0
   -3.5779   -2.8823    0.0000 C   0  0
   -4.2934   -3.2940    0.0000 O   0  0
   -4.2950   -4.1194    0.0000 C   0  0
   -5.0104   -4.5312    0.0000 C   0  0
   -5.0134   -5.3562    0.0000 C   0  0
   -5.7292   -5.7662    0.0000 C   0  0
   -6.4423   -5.3513    0.0000 C   0  0
   -6.4395   -4.5263    0.0000 C   0  0
   -7.0099   -4.1943    0.0000 F   0  0
   -5.7236   -4.1163    0.0000 C   0  0
   -3.5751   -2.0573    0.0000 C   0  0
   -4.1455   -1.7253    0.0000 Cl  0  0
   -2.8592   -1.6472    0.0000 C   0  0
   -0.7144   -0.4125    0.0000 C   0  0
    0.0000   -0.8250    0.0000 C   0  0
   -0.9548   -1.9263    0.0000 H   0  0
    1.6090   -3.1737    0.0000 H   0  0
    0.8584   -5.0140    0.0000 H   0  0
    0.9580   -4.0666    0.0000 H   0  0
  1  2  1  0
  1 45  1  0
  1 46  1  0
  2  3  2  0
  3  4  1  0
  4  5  2  0
  5  6  1  0
  6  7  2  0
  7  2  1  0
  7  8  1  0
  8  9  1  0
  8 44  1  0
  9 10  2  0
  9 11  1  0
 11 12  2  0
 12 13  1  0
 13 14  2  0
 14 15  1  0
 14 16  1  0
 15 11  1  0
 16 17  2  0
 17 18  1  0
 18 19  2  0
 19 20  1  0
 20 21  2  0
 21 22  1  0
 22 23  2  0
 23 24  1  0
 23 41  1  0
 24 25  1  0
 24 43  1  0
 25 26  2  0
 26 27  1  0
 27 28  2  0
 28 29  1  0
 28 38  1  0
 29 30  1  0
 30 31  1  0
 31 32  2  0
 32 33  1  0
 33 34  2  0
 34 35  1  0
 35 36  1  0
 35 37  2  0
 37 31  1  0
 38 39  1  0
 38 40  2  0
 40 25  1  0
 41 19  1  0
 41 42  2  0
 42 16  1  0
M  END
> <CMPD_CHEMBLID>
CHEMBL1630112

> <STANDARD_TYPE>
IC50

> <RELATION>
=

> <STANDARD_VALUE>
6000

> <STANDARD_UNITS>
nM

> <Molecular_Weight>
596.07372

$$$$

  SciTegic11272012012D

 26 28  0  0  0  0            999 V2000
    3.3808   -1.0309    0.0000 C   0  0
    2.7243   -1.0988    0.0000 N   0  0
    2.1732   -0.4848    0.0000 C   0  0
    1.4293   -0.8252    0.0000 C   0  0
    1.5039   -1.6399    0.0000 C   0  0
    2.3106   -1.8126    0.0000 N   0  0
    0.7145   -0.4125    0.0000 C   0  0
    0.7145    0.4125    0.0000 C   0  0
    0.0000    0.8250    0.0000 N   0  0
   -0.7145    0.4125    0.0000 C   0  0
   -1.4290    0.8250    0.0000 C   0  0
   -2.1435    0.4125    0.0000 C   0  0
   -2.1435   -0.4125    0.0000 C   0  0
   -2.8575   -0.8267    0.0000 N   0  0
   -2.8563   -1.6522    0.0000 C   0  0
   -2.2841   -1.9812    0.0000 O   0  0
   -3.5703   -2.0664    0.0000 N   0  0
   -3.5691   -2.8919    0.0000 C   0  0
   -4.1401   -3.2231    0.0000 C   0  0
   -3.5679   -3.5519    0.0000 C   0  0
   -2.9970   -3.2209    0.0000 C   0  0
   -1.4290   -0.8250    0.0000 N   0  0
   -0.7145   -0.4125    0.0000 C   0  0
    0.0000   -0.8250    0.0000 C   0  0
   -4.0472   -1.7922    0.0000 H   0  0
   -3.3343   -0.5525    0.0000 H   0  0
  1  2  1  0
  2  3  1  0
  3  4  2  0
  4  5  1  0
  4  7  1  0
  5  6  2  0
  6  2  1  0
  7  8  2  0
  8  9  1  0
  9 10  2  0
 10 11  1  0
 11 12  2  0
 12 13  1  0
 13 14  1  0
 13 22  2  0
 14 15  1  0
 14 26  1  0
 15 16  2  0
 15 17  1  0
 17 18  1  0
 17 25  1  0
 18 19  1  0
 18 20  1  0
 18 21  1  0
 22 23  1  0
 23 10  1  0
 23 24  2  0
 24  7  1  0
M  END
> <CMPD_CHEMBLID>
CHEMBL3318027

> <STANDARD_TYPE>
IC50

> <RELATION>
=

> <STANDARD_VALUE>
6050

> <STANDARD_UNITS>
nM

> <Molecular_Weight>
324.3803

$$$$

  SciTegic11272012012D

 29 32  0  0  0  0            999 V2000
   -2.4505   -5.2116    0.0000 C   0  0
   -1.9741   -4.7548    0.0000 C   0  0
   -2.1705   -3.9530    0.0000 O   0  0
   -1.5746   -3.3817    0.0000 C   0  0
   -0.7828   -3.6136    0.0000 C   0  0
   -0.1861   -3.0438    0.0000 C   0  0
   -0.3810   -2.2450    0.0000 C   0  0
   -1.1730   -2.0103    0.0000 C   0  0
   -1.7697   -2.5801    0.0000 C   0  0
   -2.5614   -2.3465    0.0000 O   0  0
   -2.7166   -1.7050    0.0000 C   0  0
    0.1713   -1.6316    0.0000 C   0  0
    0.9918   -1.7179    0.0000 N   0  0
    1.3273   -0.9642    0.0000 N   0  0
    2.1348   -0.7925    0.0000 C   0  0
    2.7291   -1.3607    0.0000 C   0  0
    3.5209   -1.1288    0.0000 C   0  0
    3.7159   -0.3272    0.0000 C   0  0
    3.1193    0.2426    0.0000 C   0  0
    2.3275    0.0107    0.0000 C   0  0
    0.7145   -0.4125    0.0000 C   0  0
    0.7145    0.4125    0.0000 N   0  0
    0.0000    0.8250    0.0000 C   0  0
   -0.7145    0.4125    0.0000 N   0  0
   -0.7145   -0.4125    0.0000 C   0  0
   -1.4302   -0.8238    0.0000 N   0  0
    0.0000   -0.8250    0.0000 C   0  0
   -1.9062   -0.5481    0.0000 H   0  0
   -1.4312   -1.3738    0.0000 H   0  0
  1  2  1  0
  2  3  1  0
  3  4  1  0
  4  5  2  0
  5  6  1  0
  6  7  2  0
  7  8  1  0
  7 12  1  0
  8  9  2  0
  9  4  1  0
  9 10  1  0
 10 11  1  0
 12 13  2  0
 13 14  1  0
 14 15  1  0
 14 21  1  0
 15 16  1  0
 16 17  1  0
 17 18  1  0
 18 19  1  0
 19 20  1  0
 20 15  1  0
 21 22  2  0
 22 23  1  0
 23 24  2  0
 24 25  1  0
 25 26  1  0
 25 27  2  0
 26 28  1  0
 26 29  1  0
 27 12  1  0
 27 21  1  0
M  END
> <CMPD_CHEMBLID>
CHEMBL1242659

> <STANDARD_TYPE>
IC50

> <RELATION>
=

> <STANDARD_VALUE>
6050

> <STANDARD_UNITS>
nM

> <Molecular_Weight>
367.4448

$$$$

  SciTegic11272012012D

 24 26  0  0  0  0            999 V2000
   -2.4505   -5.2116    0.0000 C   0  0
   -1.9741   -4.7548    0.0000 C   0  0
   -2.1705   -3.9530    0.0000 O   0  0
   -1.5746   -3.3817    0.0000 C   0  0
   -0.7828   -3.6136    0.0000 C   0  0
   -0.1861   -3.0438    0.0000 C   0  0
   -0.3810   -2.2450    0.0000 C   0  0
   -1.1730   -2.0103    0.0000 C   0  0
   -1.7697   -2.5801    0.0000 C   0  0
   -2.5614   -2.3465    0.0000 O   0  0
   -2.7166   -1.7050    0.0000 C   0  0
    0.1713   -1.6316    0.0000 C   0  0
    0.9918   -1.7179    0.0000 N   0  0
    1.3273   -0.9642    0.0000 N   0  0
    0.7145   -0.4125    0.0000 C   0  0
    0.7145    0.4125    0.0000 N   0  0
    0.0000    0.8250    0.0000 C   0  0
   -0.7145    0.4125    0.0000 N   0  0
   -0.7145   -0.4125    0.0000 C   0  0
   -1.4302   -0.8238    0.0000 N   0  0
    0.0000   -0.8250    0.0000 C   0  0
   -1.9062   -0.5481    0.0000 H   0  0
   -1.4312   -1.3738    0.0000 H   0  0
    1.8654   -0.8498    0.0000 H   0  0
  1  2  1  0
  2  3  1  0
  3  4  1  0
  4  5  2  0
  5  6  1  0
  6  7  2  0
  7  8  1  0
  7 12  1  0
  8  9  2  0
  9  4  1  0
  9 10  1  0
 10 11  1  0
 12 13  2  0
 13 14  1  0
 14 15  1  0
 14 24  1  0
 15 16  2  0
 16 17  1  0
 17 18  2  0
 18 19  1  0
 19 20  1  0
 19 21  2  0
 20 22  1  0
 20 23  1  0
 21 12  1  0
 21 15  1  0
M  END
> <CMPD_CHEMBLID>
CHEMBL1242471

> <STANDARD_TYPE>
IC50

> <RELATION>
=

> <STANDARD_VALUE>
6150

> <STANDARD_UNITS>
nM

> <Molecular_Weight>
285.3012

$$$$

  SciTegic11272012012D

 24 26  0  0  0  0            999 V2000
    2.2308   -2.4294    0.0000 O   0  0
    1.4053   -2.4306    0.0000 C   0  0
    0.9918   -1.7178    0.0000 C   0  0
    1.3273   -0.9642    0.0000 C   0  0
    0.7145   -0.4125    0.0000 C   0  0
    0.7145    0.4125    0.0000 C   0  0
    0.0000    0.8250    0.0000 C   0  0
   -0.0017    1.6505    0.0000 N   0  0
   -0.7172    2.0622    0.0000 C   0  0
   -1.2882    1.7312    0.0000 O   0  0
   -0.7189    2.8876    0.0000 C   0  0
   -0.0044    3.3002    0.0000 C   0  0
   -0.0044    4.1252    0.0000 C   0  0
   -0.7189    4.5377    0.0000 C   0  0
   -1.4334    4.1252    0.0000 C   0  0
   -1.4334    3.3002    0.0000 C   0  0
   -2.0049    2.9702    0.0000 Br  0  0
   -0.7145    0.4125    0.0000 C   0  0
   -0.7145   -0.4125    0.0000 N   0  0
    0.0000   -0.8250    0.0000 C   0  0
    0.1713   -1.6316    0.0000 N   0  0
   -0.1967   -2.0403    0.0000 H   0  0
    0.4741    1.9263    0.0000 H   0  0
    2.5068   -2.9052    0.0000 H   0  0
  1  2  1  0
  1 24  1  0
  2  3  1  0
  3  4  2  0
  4  5  1  0
  5  6  2  0
  6  7  1  0
  7  8  1  0
  7 18  2  0
  8  9  1  0
  8 23  1  0
  9 10  2  0
  9 11  1  0
 11 12  2  0
 12 13  1  0
 13 14  2  0
 14 15  1  0
 15 16  2  0
 16 11  1  0
 16 17  1  0
 18 19  1  0
 19 20  2  0
 20  5  1  0
 20 21  1  0
 21  3  1  0
 21 22  1  0
M  END
> <CMPD_CHEMBLID>
CHEMBL3347651

> <STANDARD_TYPE>
IC50

> <RELATION>
=

> <STANDARD_VALUE>
6200

> <STANDARD_UNITS>
nM

> <Molecular_Weight>
346.17868

$$$$

  SciTegic11272012012D

 28 31  0  0  0  0            999 V2000
    2.2541   -3.0993    0.0000 C   0  0
    2.6435   -2.5664    0.0000 C   0  0
    3.2996   -2.6374    0.0000 C   0  0
    2.3108   -1.8125    0.0000 N   0  0
    1.5040   -1.6398    0.0000 N   0  0
    1.4293   -0.8252    0.0000 C   0  0
    0.7145   -0.4125    0.0000 C   0  0
    0.7145    0.4125    0.0000 C   0  0
    0.0000    0.8250    0.0000 C   0  0
   -0.7145    0.4125    0.0000 C   0  0
   -1.4290    0.8250    0.0000 N   0  0
   -2.1435    0.4125    0.0000 C   0  0
   -2.1435   -0.4125    0.0000 C   0  0
   -1.4290   -0.8250    0.0000 C   0  0
   -1.4306   -1.6505    0.0000 N   0  0
   -0.7145   -0.4125    0.0000 C   0  0
    0.0000   -0.8250    0.0000 C   0  0
    2.1728   -0.4850    0.0000 C   0  0
    2.4289    0.2993    0.0000 C   0  0
    1.8786    0.9146    0.0000 N   0  0
    3.2361    0.4697    0.0000 N   0  0
    3.7873   -0.1443    0.0000 C   0  0
    3.5312   -0.9285    0.0000 N   0  0
    2.7239   -1.0989    0.0000 C   0  0
    2.0501    1.4372    0.0000 H   0  0
    1.3403    0.8020    0.0000 H   0  0
   -1.9074   -1.9248    0.0000 H   0  0
   -0.9548   -1.9263    0.0000 H   0  0
  1  2  1  0
  2  3  1  0
  2  4  1  0
  4  5  1  0
  5  6  2  0
  6  7  1  0
  6 18  1  0
  7  8  2  0
  8  9  1  0
  9 10  2  0
 10 11  1  0
 11 12  2  0
 12 13  1  0
 13 14  2  0
 14 15  1  0
 14 16  1  0
 15 27  1  0
 15 28  1  0
 16 10  1  0
 16 17  2  0
 17  7  1  0
 18 19  2  0
 19 20  1  0
 19 21  1  0
 20 25  1  0
 20 26  1  0
 21 22  2  0
 22 23  1  0
 23 24  2  0
 24  4  1  0
 24 18  1  0
M  END
> <CMPD_CHEMBLID>
CHEMBL1242034

> <STANDARD_TYPE>
IC50

> <RELATION>
=

> <STANDARD_VALUE>
6400

> <STANDARD_UNITS>
nM

> <Molecular_Weight>
319.36378

$$$$

  SciTegic11272012012D

 28 30  0  0  0  0            999 V2000
   -2.0134   -4.5941    0.0000 C   0  0
   -2.1705   -3.9530    0.0000 O   0  0
   -1.5746   -3.3817    0.0000 C   0  0
   -0.7828   -3.6136    0.0000 C   0  0
   -0.1861   -3.0438    0.0000 C   0  0
   -0.3810   -2.2450    0.0000 C   0  0
   -1.1730   -2.0103    0.0000 C   0  0
   -1.7697   -2.5801    0.0000 C   0  0
   -2.5614   -2.3465    0.0000 O   0  0
   -2.7166   -1.7050    0.0000 C   0  0
    0.1713   -1.6316    0.0000 C   0  0
    0.9918   -1.7179    0.0000 N   0  0
    1.3273   -0.9642    0.0000 N   0  0
    2.1337   -0.7943    0.0000 C   0  0
    2.6853   -1.4085    0.0000 C   0  0
    2.4804   -2.0359    0.0000 C   0  0
    3.4931   -1.2384    0.0000 C   0  0
    4.0447   -1.8525    0.0000 O   0  0
    0.7145   -0.4125    0.0000 C   0  0
    0.7145    0.4125    0.0000 N   0  0
    0.0000    0.8250    0.0000 C   0  0
   -0.7145    0.4125    0.0000 N   0  0
   -0.7145   -0.4125    0.0000 C   0  0
   -1.4302   -0.8238    0.0000 N   0  0
    0.0000   -0.8250    0.0000 C   0  0
   -1.9062   -0.5481    0.0000 H   0  0
   -1.4312   -1.3738    0.0000 H   0  0
    4.5829   -1.7391    0.0000 H   0  0
  1  2  1  0
  2  3  1  0
  3  4  2  0
  4  5  1  0
  5  6  2  0
  6  7  1  0
  6 11  1  0
  7  8  2  0
  8  3  1  0
  8  9  1  0
  9 10  1  0
 11 12  2  0
 12 13  1  0
 13 14  1  0
 13 19  1  0
 14 15  1  0
 15 16  1  0
 15 17  1  0
 17 18  1  0
 18 28  1  0
 19 20  2  0
 20 21  1  0
 21 22  2  0
 22 23  1  0
 23 24  1  0
 23 25  2  0
 24 26  1  0
 24 27  1  0
 25 11  1  0
 25 19  1  0
M  END
> <CMPD_CHEMBLID>
CHEMBL1242381

> <STANDARD_TYPE>
IC50

> <RELATION>
=

> <STANDARD_VALUE>
6400

> <STANDARD_UNITS>
nM

> <Molecular_Weight>
343.38034

$$$$

  SciTegic11272012012D

 28 31  0  0  0  0            999 V2000
    2.8524    1.4900    0.0000 Cl  0  0
    2.8546    0.8300    0.0000 C   0  0
    3.5706    0.4200    0.0000 C   0  0
    3.5734   -0.4050    0.0000 C   0  0
    2.8604   -0.8200    0.0000 C   0  0
    2.1444   -0.4100    0.0000 C   0  0
    1.4302   -0.8237    0.0000 N   0  0
    0.7144   -0.4125    0.0000 C   0  0
    0.7144    0.4125    0.0000 N   0  0
    0.0000    0.8250    0.0000 C   0  0
   -0.7144    0.4125    0.0000 N   0  0
   -0.7144   -0.4125    0.0000 C   0  0
   -1.3273   -0.9641    0.0000 N   0  0
   -0.9918   -1.7178    0.0000 N   0  0
   -0.1713   -1.6316    0.0000 C   0  0
    0.3789   -2.2450    0.0000 N   0  0
    0.1229   -3.0297    0.0000 C   0  0
    0.6741   -3.6442    0.0000 C   0  0
    0.4193   -4.4288    0.0000 C   0  0
    0.9715   -5.0419    0.0000 C   0  0
    1.7784   -4.8702    0.0000 C   0  0
    2.0332   -4.0855    0.0000 C   0  0
    1.4811   -3.4725    0.0000 C   0  0
    0.0000   -0.8250    0.0000 C   0  0
    2.1416    0.4150    0.0000 C   0  0
    0.9171   -2.1315    0.0000 H   0  0
    1.1908    0.6875    0.0000 H   0  0
    1.4311   -1.3737    0.0000 H   0  0
  1  2  1  0
  2  3  2  0
  3  4  1  0
  4  5  2  0
  5  6  1  0
  6  7  1  0
  6 25  2  0
  7  8  1  0
  7 28  1  0
  8  9  1  0
  9 10  1  0
  9 27  1  0
 10 11  2  0
 11 12  1  0
 12 13  2  0
 13 14  1  0
 14 15  2  0
 15 16  1  0
 15 24  1  0
 16 17  1  0
 16 26  1  0
 17 18  1  0
 18 19  2  0
 19 20  1  0
 20 21  2  0
 21 22  1  0
 22 23  2  0
 23 18  1  0
 24  8  2  0
 24 12  1  0
 25  2  1  0
M  END
> <CMPD_CHEMBLID>
CHEMBL121796

> <STANDARD_TYPE>
IC50

> <RELATION>
=

> <STANDARD_VALUE>
6600

> <STANDARD_UNITS>
nM

> <Molecular_Weight>
350.8049

$$$$

  SciTegic11272012012D

 49 54  0  0  0  0            999 V2000
    4.2761   -5.7875    0.0000 N   0  0
    4.9908   -5.3744    0.0000 C   0  0
    5.7046   -5.7880    0.0000 C   0  0
    6.4198   -5.3767    0.0000 C   0  0
    6.4211   -4.5517    0.0000 C   0  0
    5.7073   -4.1380    0.0000 C   0  0
    4.9921   -4.5494    0.0000 C   0  0
    4.2787   -4.1341    0.0000 N   0  0
    4.2812   -3.3086    0.0000 C   0  0
    4.8539   -2.9805    0.0000 O   0  0
    3.5678   -2.8933    0.0000 C   0  0
    3.5703   -2.0678    0.0000 C   0  0
    2.8570   -1.6525    0.0000 C   0  0
    2.8583   -0.8275    0.0000 C   0  0
    2.1445   -0.4139    0.0000 C   0  0
    1.4293   -0.8252    0.0000 C   0  0
    1.4281   -1.6502    0.0000 C   0  0
    2.1419   -2.0639    0.0000 C   0  0
    0.7144   -0.4125    0.0000 C   0  0
    0.7144    0.4125    0.0000 C   0  0
    0.0000    0.8250    0.0000 C   0  0
   -0.7144    0.4125    0.0000 C   0  0
   -1.4290    0.8250    0.0000 N   0  0
   -2.1434    0.4125    0.0000 C   0  0
   -2.1434   -0.4125    0.0000 N   0  0
   -1.4290   -0.8250    0.0000 C   0  0
   -1.4306   -1.6504    0.0000 N   0  0
   -2.1461   -2.0622    0.0000 C   0  0
   -2.1490   -2.8872    0.0000 C   0  0
   -2.8649   -3.2972    0.0000 C   0  0
   -3.5779   -2.8823    0.0000 C   0  0
   -4.2933   -3.2940    0.0000 O   0  0
   -4.2950   -4.1194    0.0000 C   0  0
   -5.0104   -4.5312    0.0000 C   0  0
   -5.0134   -5.3562    0.0000 C   0  0
   -5.7292   -5.7662    0.0000 C   0  0
   -6.4423   -5.3513    0.0000 C   0  0
   -6.4394   -4.5263    0.0000 C   0  0
   -7.0099   -4.1943    0.0000 F   0  0
   -5.7236   -4.1162    0.0000 C   0  0
   -3.5751   -2.0573    0.0000 C   0  0
   -4.1455   -1.7253    0.0000 Cl  0  0
   -2.8592   -1.6472    0.0000 C   0  0
   -0.7144   -0.4125    0.0000 C   0  0
    0.0000   -0.8250    0.0000 C   0  0
   -0.9548   -1.9263    0.0000 H   0  0
    3.8015   -4.4075    0.0000 H   0  0
    4.2761   -6.3375    0.0000 H   0  0
    3.7998   -5.5125    0.0000 H   0  0
  1  2  1  0
  1 48  1  0
  1 49  1  0
  2  3  2  0
  3  4  1  0
  4  5  2  0
  5  6  1  0
  6  7  2  0
  7  2  1  0
  7  8  1  0
  8  9  1  0
  8 47  1  0
  9 10  2  0
  9 11  1  0
 11 12  1  0
 12 13  1  0
 13 14  2  0
 14 15  1  0
 15 16  2  0
 16 17  1  0
 16 19  1  0
 17 18  2  0
 18 13  1  0
 19 20  2  0
 20 21  1  0
 21 22  2  0
 22 23  1  0
 23 24  2  0
 24 25  1  0
 25 26  2  0
 26 27  1  0
 26 44  1  0
 27 28  1  0
 27 46  1  0
 28 29  2  0
 29 30  1  0
 30 31  2  0
 31 32  1  0
 31 41  1  0
 32 33  1  0
 33 34  1  0
 34 35  2  0
 35 36  1  0
 36 37  2  0
 37 38  1  0
 38 39  1  0
 38 40  2  0
 40 34  1  0
 41 42  1  0
 41 43  2  0
 43 28  1  0
 44 22  1  0
 44 45  2  0
 45 19  1  0
M  END
> <CMPD_CHEMBLID>
CHEMBL1630116

> <STANDARD_TYPE>
IC50

> <RELATION>
=

> <STANDARD_VALUE>
6900

> <STANDARD_UNITS>
nM

> <Molecular_Weight>
618.09916

$$$$

  SciTegic11272012012D

 33 36  0  0  0  0            999 V2000
    1.2861   -0.7425    0.0000 C   0  0
    0.7144   -0.4125    0.0000 C   0  0
    0.7144    0.4125    0.0000 C   0  0
    0.0000    0.8250    0.0000 C   0  0
   -0.7144    0.4125    0.0000 C   0  0
   -1.4302    0.8237    0.0000 N   0  0
   -2.1444    0.4100    0.0000 C   0  0
   -2.1433   -0.2500    0.0000 O   0  0
   -2.8602    0.8213    0.0000 C   0  0
   -3.5747    0.4088    0.0000 C   0  0
   -4.2892    0.8213    0.0000 C   0  0
   -4.2892    1.6463    0.0000 C   0  0
   -5.0032    2.0604    0.0000 C   0  0
   -5.0023    2.7204    0.0000 Cl  0  0
   -3.5747    2.0588    0.0000 C   0  0
   -2.8602    1.6463    0.0000 C   0  0
   -0.7144   -0.4125    0.0000 C   0  0
    0.0000   -0.8250    0.0000 C   0  0
   -0.0017   -1.6504    0.0000 N   0  0
   -0.7171   -2.0622    0.0000 C   0  0
   -0.7201   -2.8872    0.0000 N   0  0
   -1.4359   -3.2972    0.0000 C   0  0
   -2.1490   -2.8822    0.0000 C   0  0
   -2.1461   -2.0572    0.0000 C   0  0
   -1.4302   -1.6472    0.0000 N   0  0
   -2.8595   -1.6421    0.0000 C   0  0
   -3.5761   -2.0509    0.0000 C   0  0
   -4.2885   -1.6348    0.0000 C   0  0
   -4.2843   -0.8099    0.0000 C   0  0
   -3.5678   -0.4009    0.0000 N   0  0
   -2.8554   -0.8170    0.0000 C   0  0
    0.4742   -1.9263    0.0000 H   0  0
   -1.4312    1.3737    0.0000 H   0  0
  1  2  1  0
  2  3  2  0
  3  4  1  0
  4  5  2  0
  5  6  1  0
  5 17  1  0
  6  7  1  0
  6 33  1  0
  7  8  2  0
  7  9  1  0
  9 10  2  0
 10 11  1  0
 11 12  2  0
 12 13  1  0
 12 15  1  0
 13 14  1  0
 15 16  2  0
 16  9  1  0
 17 18  2  0
 18  2  1  0
 18 19  1  0
 19 20  1  0
 19 32  1  0
 20 21  2  0
 21 22  1  0
 22 23  2  0
 23 24  1  0
 24 25  2  0
 24 26  1  0
 25 20  1  0
 26 27  2  0
 27 28  1  0
 28 29  2  0
 29 30  1  0
 30 31  2  0
 31 26  1  0
M  END
> <CMPD_CHEMBLID>
CHEMBL1765715

> <STANDARD_TYPE>
IC50

> <RELATION>
=

> <STANDARD_VALUE>
6950

> <STANDARD_UNITS>
nM

> <Molecular_Weight>
429.9015

$$$$

  SciTegic11272012012D

 22 25  0  0  0  0            999 V2000
   -0.4140    0.7120    0.0000 C   0  0
    0.0000    0.0000    0.0000 C   0  0
   -0.4140   -0.7120    0.0000 N   0  0
   -1.2419   -0.7120    0.0000 C   0  0
   -1.6559    0.0000    0.0000 C   0  0
   -1.2419    0.7120    0.0000 C   0  0
   -2.0699   -0.7120    0.0000 C   0  0
   -2.8978   -0.7120    0.0000 C   0  0
   -3.3118    0.0000    0.0000 N   0  0
   -2.8978    0.7120    0.0000 C   0  0
   -2.0699    0.7120    0.0000 C   0  0
   -4.1373    0.0000    0.0000 C   0  0
   -4.5472   -0.7161    0.0000 N   0  0
   -5.3722   -0.7192    0.0000 C   0  0
   -5.7875   -0.0062    0.0000 N   0  0
   -5.3776    0.7099    0.0000 C   0  0
   -5.6354    1.4932    0.0000 N   0  0
   -4.9697    1.9806    0.0000 C   0  0
   -4.3004    1.4981    0.0000 N   0  0
   -4.5525    0.7129    0.0000 C   0  0
   -6.1592    1.6611    0.0000 H   0  0
   -0.1397   -1.1888    0.0000 H   0  0
  1  2  1  0
  2  3  1  0
  3  4  1  0
  3 22  1  0
  4  5  1  0
  5  6  1  0
  5  7  1  0
  6  1  1  0
  7  8  1  0
  8  9  1  0
  9 10  1  0
  9 12  1  0
 10 11  1  0
 11  5  1  0
 12 13  2  0
 13 14  1  0
 14 15  2  0
 15 16  1  0
 16 17  1  0
 17 18  1  0
 17 21  1  0
 18 19  2  0
 19 20  1  0
 20 12  1  0
 20 16  2  0
M  END
> <CMPD_CHEMBLID>
CHEMBL2420911

> <STANDARD_TYPE>
IC50

> <RELATION>
=

> <STANDARD_VALUE>
7000

> <STANDARD_UNITS>
nM

> <Molecular_Weight>
272.3488

$$$$

  SciTegic11272012012D

 41 45  0  0  0  0            999 V2000
    6.4322   -2.0623    0.0000 N   0  0
    6.4305   -2.8877    0.0000 C   0  0
    7.1450   -3.3002    0.0000 C   0  0
    7.1450   -4.1252    0.0000 C   0  0
    6.4305   -4.5377    0.0000 C   0  0
    5.7160   -4.1252    0.0000 C   0  0
    5.7160   -3.3002    0.0000 C   0  0
    5.0003   -2.8889    0.0000 N   0  0
    4.2860   -3.3026    0.0000 C   0  0
    4.2871   -3.9626    0.0000 O   0  0
    3.5703   -2.8914    0.0000 C   0  0
    2.8558   -3.3038    0.0000 C   0  0
    2.1414   -2.8913    0.0000 C   0  0
    2.1413   -2.0663    0.0000 C   0  0
    1.4273   -1.6521    0.0000 C   0  0
    1.4285   -0.8267    0.0000 O   0  0
    0.7144   -0.4125    0.0000 C   0  0
    0.7144    0.4125    0.0000 C   0  0
    0.0000    0.8250    0.0000 C   0  0
   -0.7144    0.4125    0.0000 C   0  0
   -1.4290    0.8250    0.0000 N   0  0
   -2.1434    0.4125    0.0000 C   0  0
   -2.1434   -0.4125    0.0000 N   0  0
   -1.4290   -0.8250    0.0000 C   0  0
   -1.4306   -1.6504    0.0000 N   0  0
   -2.1461   -2.0622    0.0000 C   0  0
   -2.1490   -2.8872    0.0000 C   0  0
   -2.8649   -3.2972    0.0000 C   0  0
   -3.5779   -2.8823    0.0000 C   0  0
   -3.5751   -2.0573    0.0000 C   0  0
   -2.8592   -1.6472    0.0000 C   0  0
   -4.2885   -1.6421    0.0000 C   0  0
   -4.8589   -1.3101    0.0000 C   0  0
   -0.7144   -0.4125    0.0000 C   0  0
    0.0000   -0.8250    0.0000 C   0  0
    2.8559   -1.6538    0.0000 C   0  0
    3.5703   -2.0664    0.0000 C   0  0
   -0.9548   -1.9263    0.0000 H   0  0
    4.9993   -2.3389    0.0000 H   0  0
    6.9089   -1.7880    0.0000 H   0  0
    5.9564   -1.7865    0.0000 H   0  0
  1  2  1  0
  1 40  1  0
  1 41  1  0
  2  3  2  0
  3  4  1  0
  4  5  2  0
  5  6  1  0
  6  7  2  0
  7  2  1  0
  7  8  1  0
  8  9  1  0
  8 39  1  0
  9 10  2  0
  9 11  1  0
 11 12  2  0
 12 13  1  0
 13 14  2  0
 14 15  1  0
 14 36  1  0
 15 16  1  0
 16 17  1  0
 17 18  2  0
 18 19  1  0
 19 20  2  0
 20 21  1  0
 21 22  2  0
 22 23  1  0
 23 24  2  0
 24 25  1  0
 24 34  1  0
 25 26  1  0
 25 38  1  0
 26 27  2  0
 27 28  1  0
 28 29  2  0
 29 30  1  0
 30 31  2  0
 30 32  1  0
 31 26  1  0
 32 33  3  0
 34 20  1  0
 34 35  2  0
 35 17  1  0
 36 37  2  0
 37 11  1  0
M  END
> <CMPD_CHEMBLID>
CHEMBL3218000

> <STANDARD_TYPE>
IC50

> <RELATION>
=

> <STANDARD_VALUE>
7000

> <STANDARD_UNITS>
nM

> <Molecular_Weight>
485.53592

$$$$

  SciTegic11272012012D

 30 33  0  0  0  0            999 V2000
    1.4276   -1.4867    0.0000 C   0  0
    1.4285   -0.8267    0.0000 S   0  0
    0.7144   -0.4125    0.0000 C   0  0
    0.7144    0.4125    0.0000 N   0  0
    0.0000    0.8250    0.0000 C   0  0
    0.0017    1.6504    0.0000 N   0  0
    0.7171    2.0622    0.0000 C   0  0
    0.7188    2.8876    0.0000 C   0  0
    1.4343    3.2993    0.0000 C   0  0
    1.4372    4.1243    0.0000 C   0  0
    2.1531    4.5343    0.0000 C   0  0
    2.8661    4.1194    0.0000 C   0  0
    2.8632    3.2944    0.0000 C   0  0
    2.1474    2.8843    0.0000 C   0  0
   -0.7144    0.4125    0.0000 C   0  0
   -1.4986    0.6674    0.0000 C   0  0
   -1.9836    0.0000    0.0000 N   0  0
   -1.4986   -0.6674    0.0000 N   0  0
   -1.7547   -1.4507    0.0000 C   0  0
   -2.5623   -1.6213    0.0000 C   0  0
   -3.0032   -1.1301    0.0000 Cl  0  0
   -2.8189   -2.4059    0.0000 C   0  0
   -3.6259   -2.5776    0.0000 C   0  0
   -3.8807   -3.3622    0.0000 C   0  0
   -3.3285   -3.9752    0.0000 C   0  0
   -2.5216   -3.8036    0.0000 C   0  0
   -2.2668   -3.0189    0.0000 C   0  0
   -0.7144   -0.4125    0.0000 C   0  0
    0.0000   -0.8250    0.0000 N   0  0
   -0.4742    1.9263    0.0000 H   0  0
  1  2  1  0
  2  3  1  0
  3  4  2  0
  4  5  1  0
  5  6  1  0
  5 15  2  0
  6  7  1  0
  6 30  1  0
  7  8  1  0
  8  9  1  0
  9 10  2  0
 10 11  1  0
 11 12  2  0
 12 13  1  0
 13 14  2  0
 14  9  1  0
 15 16  1  0
 16 17  2  0
 17 18  1  0
 18 19  1  0
 18 28  1  0
 19 20  1  0
 20 21  1  0
 20 22  1  0
 22 23  2  0
 23 24  1  0
 24 25  2  0
 25 26  1  0
 26 27  2  0
 27 22  1  0
 28 15  1  0
 28 29  2  0
 29  3  1  0
M  END
> <CMPD_CHEMBLID>
CHEMBL289125

> <STANDARD_TYPE>
Ki

> <RELATION>
=

> <STANDARD_VALUE>
7030

> <STANDARD_UNITS>
nM

> <Molecular_Weight>
423.96158

$$$$

  SciTegic11272012012D

 45 45  0  0  0  0            999 V2000
    5.7045   -8.9244    0.0000 C   0  0
    5.7054   -8.2644    0.0000 C   0  0
    4.9914   -7.8502    0.0000 C   0  0
    4.9926   -7.0248    0.0000 C   0  0
    4.2786   -6.6106    0.0000 N   0  0
    3.5639   -7.0236    0.0000 C   0  0
    3.5636   -7.8490    0.0000 C   0  0
    2.8489   -8.2619    0.0000 C   0  0
    2.8487   -8.9219    0.0000 C   0  0
    4.2797   -5.7852    0.0000 C   0  0
    4.8519   -5.4562    0.0000 O   0  0
    3.5657   -5.3710    0.0000 C   0  0
    2.9936   -5.7000    0.0000 C   0  0
    3.5670   -4.5456    0.0000 N   0  0
    2.8530   -4.1314    0.0000 C   0  0
    2.2808   -4.4604    0.0000 O   0  0
    2.8541   -3.3059    0.0000 C   0  0
    2.1401   -2.8917    0.0000 N   0  0
    2.1413   -2.0663    0.0000 C   0  0
    2.7134   -1.7373    0.0000 O   0  0
    1.4273   -1.6521    0.0000 C   0  0
    1.4285   -0.8267    0.0000 C   0  0
    2.1436   -0.4145    0.0000 C   0  0
    2.1460    0.4105    0.0000 C   0  0
    2.8617    0.8209    0.0000 C   0  0
    3.5749    0.4064    0.0000 C   0  0
    4.2918    0.8156    0.0000 O   0  0
    5.0049    0.3998    0.0000 P   0  0
    5.0018   -0.2601    0.0000 O   0  0
    5.7217    0.8090    0.0000 O   0  0
    4.2748   -0.0186    0.0000 O   0  0
    3.5726   -0.4186    0.0000 C   0  0
    2.8569   -0.8291    0.0000 C   0  0
    0.7109   -2.0621    0.0000 N   0  0
   -0.0026   -1.6472    0.0000 C   0  0
   -0.5755   -1.9750    0.0000 O   0  0
   -0.0004   -0.9872    0.0000 C   0  0
    3.5688   -2.8930    0.0000 C   0  0
    3.5690   -2.2330    0.0000 C   0  0
    4.1404   -3.2230    0.0000 C   0  0
    0.7089   -2.6121    0.0000 H   0  0
    4.2727   -0.5686    0.0000 H   0  0
    6.1968    0.5320    0.0000 H   0  0
    1.6633   -3.1659    0.0000 H   0  0
    4.0437   -4.2714    0.0000 H   0  0
  1  2  1  0
  2  3  1  0
  3  4  1  0
  4  5  1  0
  5  6  1  0
  5 10  1  0
  6  7  1  0
  7  8  1  0
  8  9  1  0
 10 11  2  0
 10 12  1  0
 12 13  1  0
 12 14  1  0
 14 15  1  0
 14 45  1  0
 15 16  2  0
 15 17  1  0
 17 18  1  0
 17 38  1  0
 18 19  1  0
 18 44  1  0
 19 20  2  0
 19 21  1  0
 21 22  1  0
 21 34  1  0
 22 23  1  0
 23 24  2  0
 24 25  1  0
 25 26  2  0
 26 27  1  0
 26 32  1  0
 27 28  1  0
 28 29  2  0
 28 30  1  0
 28 31  1  0
 30 43  1  0
 31 42  1  0
 32 33  2  0
 33 23  1  0
 34 35  1  0
 34 41  1  0
 35 36  2  0
 35 37  1  0
 38 39  1  0
 38 40  1  0
M  END
> <CMPD_CHEMBLID>
CHEMBL327958

> <STANDARD_TYPE>
IC50

> <RELATION>
=

> <STANDARD_VALUE>
7400

> <STANDARD_UNITS>
nM

> <Molecular_Weight>
584.64196

$$$$

  SciTegic11272012012D

 38 41  0  0  0  0            999 V2000
    1.4276   -1.4867    0.0000 C   0  0
    1.4285   -0.8267    0.0000 N   0  0
    2.0006   -0.4977    0.0000 C   0  0
    0.7144   -0.4125    0.0000 C   0  0
    0.7144    0.4125    0.0000 C   0  0
    0.0000    0.8250    0.0000 C   0  0
   -0.7144    0.4125    0.0000 C   0  0
   -0.7144   -0.4125    0.0000 C   0  0
    0.0000   -0.8250    0.0000 C   0  0
   -1.4302    0.8237    0.0000 N   0  0
   -2.1444    0.4100    0.0000 C   0  0
   -2.1416   -0.4150    0.0000 N   0  0
   -2.8547   -0.8300    0.0000 C   0  0
   -2.8535   -1.6554    0.0000 N   0  0
   -3.5676   -2.0696    0.0000 C   0  0
   -3.5676   -2.8947    0.0000 C   0  0
   -4.2821   -3.3071    0.0000 C   0  0
   -4.2821   -3.9671    0.0000 Cl  0  0
   -4.9965   -2.8947    0.0000 C   0  0
   -4.9965   -2.0696    0.0000 C   0  0
   -5.5681   -1.7396    0.0000 Cl  0  0
   -4.2821   -1.6571    0.0000 C   0  0
   -3.5706   -0.4200    0.0000 N   0  0
   -3.5735    0.4050    0.0000 C   0  0
   -2.8604    0.8200    0.0000 C   0  0
   -2.8650    1.6454    0.0000 C   0  0
   -2.2952    1.9784    0.0000 O   0  0
   -3.5819    2.0546    0.0000 N   0  0
   -3.5864    2.8801    0.0000 C   0  0
   -4.3024    3.2901    0.0000 C   0  0
   -4.3052    4.1151    0.0000 C   0  0
   -3.5923    4.5301    0.0000 N   0  0
   -3.5946    5.1901    0.0000 C   0  0
   -2.8763    4.1202    0.0000 C   0  0
   -2.8734    3.2952    0.0000 C   0  0
   -4.0567    1.7772    0.0000 H   0  0
   -2.3768   -1.9296    0.0000 H   0  0
   -1.4312    1.3737    0.0000 H   0  0
  1  2  1  0
  2  3  1  0
  2  4  1  0
  4  5  1  0
  5  6  1  0
  6  7  1  0
  7  8  1  0
  7 10  1  0
  8  9  1  0
  9  4  1  0
 10 11  1  0
 10 38  1  0
 11 12  2  0
 12 13  1  0
 13 14  1  0
 13 23  2  0
 14 15  1  0
 14 37  1  0
 15 16  2  0
 16 17  1  0
 17 18  1  0
 17 19  2  0
 19 20  1  0
 20 21  1  0
 20 22  2  0
 22 15  1  0
 23 24  1  0
 24 25  2  0
 25 11  1  0
 25 26  1  0
 26 27  2  0
 26 28  1  0
 28 29  1  0
 28 36  1  0
 29 30  1  0
 30 31  1  0
 31 32  1  0
 32 33  1  0
 32 34  1  0
 34 35  1  0
 35 29  1  0
M  END
> <CMPD_CHEMBLID>
CHEMBL2312649

> <STANDARD_TYPE>
IC50

> <RELATION>
=

> <STANDARD_VALUE>
7610

> <STANDARD_UNITS>
nM

> <Molecular_Weight>
520.4977

$$$$

  SciTegic11272012012D

 22 25  0  0  0  0            999 V2000
    1.4276   -1.4867    0.0000 C   0  0
    1.4285   -0.8267    0.0000 O   0  0
    0.7145   -0.4125    0.0000 C   0  0
    0.7145    0.4125    0.0000 C   0  0
    0.0000    0.8250    0.0000 C   0  0
   -0.7145    0.4125    0.0000 C   0  0
   -1.4987    0.6674    0.0000 C   0  0
   -1.9836    0.0000    0.0000 C   0  0
   -1.4987   -0.6674    0.0000 N   0  0
   -0.7145   -0.4125    0.0000 C   0  0
    0.0000   -0.8250    0.0000 C   0  0
   -2.8090    0.0000    0.0000 C   0  0
   -3.2264   -0.7041    0.0000 N   0  0
   -4.0286   -0.5112    0.0000 N   0  0
   -4.0928    0.3109    0.0000 C   0  0
   -4.7472    0.8134    0.0000 C   0  0
   -4.6391    1.6313    0.0000 C   0  0
   -3.8768    1.9467    0.0000 C   0  0
   -3.2225    1.4442    0.0000 N   0  0
   -3.3305    0.6263    0.0000 C   0  0
   -4.4470   -0.8682    0.0000 H   0  0
   -1.6686   -1.1906    0.0000 H   0  0
  1  2  1  0
  2  3  1  0
  3  4  2  0
  4  5  1  0
  5  6  2  0
  6  7  1  0
  7  8  2  0
  8  9  1  0
  8 12  1  0
  9 10  1  0
  9 22  1  0
 10  6  1  0
 10 11  2  0
 11  3  1  0
 12 13  2  0
 13 14  1  0
 14 15  1  0
 14 21  1  0
 15 16  2  0
 16 17  1  0
 17 18  2  0
 18 19  1  0
 19 20  2  0
 20 12  1  0
 20 15  1  0
M  END
> <CMPD_CHEMBLID>
CHEMBL1288582

> <STANDARD_TYPE>
IC50

> <RELATION>
=

> <STANDARD_VALUE>
7680

> <STANDARD_UNITS>
nM

> <Molecular_Weight>
264.28198

$$$$

  SciTegic11272012012D

 41 45  0  0  0  0            999 V2000
    6.1528   -2.1876    0.0000 O   0  0
    5.3316   -2.2709    0.0000 N   0  0
    4.8484   -1.6017    0.0000 C   0  0
    5.1189   -0.9996    0.0000 O   0  0
    4.0272   -1.6849    0.0000 C   0  0
    3.5440   -1.0156    0.0000 C   0  0
    2.7242   -1.0988    0.0000 C   0  0
    2.1731   -0.4848    0.0000 O   0  0
    1.4293   -0.8252    0.0000 C   0  0
    1.5039   -1.6398    0.0000 C   0  0
    2.3105   -1.8126    0.0000 C   0  0
    0.7144   -0.4125    0.0000 C   0  0
    0.7144    0.4125    0.0000 C   0  0
    0.0000    0.8250    0.0000 C   0  0
   -0.7144    0.4125    0.0000 C   0  0
   -1.4290    0.8250    0.0000 N   0  0
   -2.1434    0.4125    0.0000 C   0  0
   -2.1434   -0.4125    0.0000 N   0  0
   -1.4290   -0.8250    0.0000 C   0  0
   -1.4306   -1.6504    0.0000 N   0  0
   -2.1461   -2.0622    0.0000 C   0  0
   -2.1490   -2.8872    0.0000 C   0  0
   -2.8649   -3.2972    0.0000 C   0  0
   -3.5779   -2.8823    0.0000 C   0  0
   -4.2934   -3.2940    0.0000 O   0  0
   -4.2950   -4.1194    0.0000 C   0  0
   -5.0104   -4.5312    0.0000 C   0  0
   -5.0134   -5.3562    0.0000 C   0  0
   -5.7292   -5.7662    0.0000 C   0  0
   -6.4423   -5.3513    0.0000 C   0  0
   -6.4395   -4.5263    0.0000 C   0  0
   -7.0099   -4.1943    0.0000 F   0  0
   -5.7236   -4.1163    0.0000 C   0  0
   -3.5751   -2.0573    0.0000 C   0  0
   -4.1455   -1.7253    0.0000 Cl  0  0
   -2.8592   -1.6472    0.0000 C   0  0
   -0.7144   -0.4125    0.0000 C   0  0
    0.0000   -0.8250    0.0000 C   0  0
   -0.9548   -1.9263    0.0000 H   0  0
    5.1062   -2.7726    0.0000 H   0  0
    6.4748   -2.6336    0.0000 H   0  0
  1  2  1  0
  1 41  1  0
  2  3  1  0
  2 40  1  0
  3  4  2  0
  3  5  1  0
  5  6  2  0
  6  7  1  0
  7  8  1  0
  8  9  1  0
  9 10  2  0
  9 12  1  0
 10 11  1  0
 11  7  2  0
 12 13  2  0
 13 14  1  0
 14 15  2  0
 15 16  1  0
 16 17  2  0
 17 18  1  0
 18 19  2  0
 19 20  1  0
 19 37  1  0
 20 21  1  0
 20 39  1  0
 21 22  2  0
 22 23  1  0
 23 24  2  0
 24 25  1  0
 24 34  1  0
 25 26  1  0
 26 27  1  0
 27 28  2  0
 28 29  1  0
 29 30  2  0
 30 31  1  0
 31 32  1  0
 31 33  2  0
 33 27  1  0
 34 35  1  0
 34 36  2  0
 36 21  1  0
 37 15  1  0
 37 38  2  0
 38 12  1  0
M  END
> <CMPD_CHEMBLID>
CHEMBL1630107

> <STANDARD_TYPE>
IC50

> <RELATION>
=

> <STANDARD_VALUE>
7700

> <STANDARD_UNITS>
nM

> <Molecular_Weight>
530.9342

$$$$

  SciTegic11272012012D

 43 47  0  0  0  0            999 V2000
    1.4302   -0.8237    0.0000 N   0  0
    0.7144   -0.4125    0.0000 C   0  0
    0.7144    0.4125    0.0000 C   0  0
    0.0000    0.8250    0.0000 C   0  0
   -0.7144    0.4125    0.0000 C   0  0
   -0.7144   -0.4125    0.0000 C   0  0
    0.0000   -0.8250    0.0000 C   0  0
   -0.0017   -1.6504    0.0000 N   0  0
   -0.7171   -2.0622    0.0000 C   0  0
   -1.2882   -1.7312    0.0000 O   0  0
   -0.7188   -2.8876    0.0000 C   0  0
   -1.4333   -3.3002    0.0000 C   0  0
   -1.4333   -4.1252    0.0000 C   0  0
   -0.7188   -4.5377    0.0000 C   0  0
   -0.0044   -4.1252    0.0000 C   0  0
   -0.0043   -3.3002    0.0000 C   0  0
   -0.7172   -5.3631    0.0000 C   0  0
   -1.2882   -5.6941    0.0000 O   0  0
   -0.0018   -5.7748    0.0000 N   0  0
   -0.0001   -6.6003    0.0000 C   0  0
    0.7144   -7.0128    0.0000 C   0  0
    0.7144   -7.8378    0.0000 C   0  0
   -0.0001   -8.2503    0.0000 C   0  0
   -0.7146   -7.8379    0.0000 C   0  0
   -1.4303   -8.2491    0.0000 N   0  0
   -2.1445   -7.8354    0.0000 C   0  0
   -2.8604   -8.2454    0.0000 N   0  0
   -3.5735   -7.8304    0.0000 C   0  0
   -3.5707   -7.0054    0.0000 C   0  0
   -2.8548   -6.5954    0.0000 C   0  0
   -2.1417   -7.0104    0.0000 N   0  0
   -4.2841   -6.5902    0.0000 C   0  0
   -5.0007   -6.9991    0.0000 C   0  0
   -5.7130   -6.5830    0.0000 C   0  0
   -5.7089   -5.7580    0.0000 C   0  0
   -4.9923   -5.3491    0.0000 N   0  0
   -4.2799   -5.7652    0.0000 C   0  0
   -0.7146   -7.0129    0.0000 C   0  0
   -1.4312   -8.7991    0.0000 H   0  0
    0.4741   -5.4990    0.0000 H   0  0
    0.4742   -1.9263    0.0000 H   0  0
    1.9061   -0.5481    0.0000 H   0  0
    1.4312   -1.3737    0.0000 H   0  0
  1  2  1  0
  1 42  1  0
  1 43  1  0
  2  3  2  0
  3  4  1  0
  4  5  2  0
  5  6  1  0
  6  7  2  0
  7  2  1  0
  7  8  1  0
  8  9  1  0
  8 41  1  0
  9 10  2  0
  9 11  1  0
 11 12  2  0
 12 13  1  0
 13 14  2  0
 14 15  1  0
 14 17  1  0
 15 16  2  0
 16 11  1  0
 17 18  2  0
 17 19  1  0
 19 20  1  0
 19 40  1  0
 20 21  2  0
 21 22  1  0
 22 23  2  0
 23 24  1  0
 24 25  1  0
 24 38  2  0
 25 26  1  0
 25 39  1  0
 26 27  2  0
 27 28  1  0
 28 29  2  0
 29 30  1  0
 29 32  1  0
 30 31  2  0
 31 26  1  0
 32 33  2  0
 33 34  1  0
 34 35  2  0
 35 36  1  0
 36 37  2  0
 37 32  1  0
 38 20  1  0
M  END
> <CMPD_CHEMBLID>
CHEMBL473826

> <STANDARD_TYPE>
IC50

> <RELATION>
=

> <STANDARD_VALUE>
7800

> <STANDARD_UNITS>
nM

> <Molecular_Weight>
501.53862

$$$$

  SciTegic11272012012D

 36 40  0  0  0  0            999 V2000
    2.2671   -4.0301    0.0000 C   0  0
    1.6146   -3.9306    0.0000 N   0  0
    1.0991   -4.5752    0.0000 C   0  0
    1.3990   -5.3442    0.0000 C   0  0
    0.8847   -5.9893    0.0000 C   0  0
    1.1861   -6.7572    0.0000 O   0  0
    2.0018   -6.8802    0.0000 C   0  0
    2.5162   -6.2352    0.0000 C   0  0
    2.2148   -5.4673    0.0000 O   0  0
    1.3147   -3.1616    0.0000 S   0  0
    0.9022   -3.6768    0.0000 O   0  0
    0.6622   -3.0621    0.0000 O   0  0
    1.8302   -2.5170    0.0000 N   0  0
    1.5302   -1.7479    0.0000 C   0  0
    2.0446   -1.1029    0.0000 C   0  0
    1.7432   -0.3349    0.0000 C   0  0
    0.9269   -0.2115    0.0000 C   0  0
    0.7433    0.5928    0.0000 C   0  0
    0.0000    0.9507    0.0000 C   0  0
   -0.7433    0.5927    0.0000 C   0  0
   -1.3488    1.1541    0.0000 N   0  0
   -2.1371    0.9109    0.0000 C   0  0
   -2.3207    0.1065    0.0000 C   0  0
   -1.7159   -0.4546    0.0000 C   0  0
   -0.9269   -0.2116    0.0000 C   0  0
   -0.4125   -0.8566    0.0000 C   0  0
   -0.6989   -1.4512    0.0000 O   0  0
    0.4125   -0.8566    0.0000 C   0  0
    0.7144   -1.6250    0.0000 C   0  0
   -3.1094   -0.1367    0.0000 C   0  0
   -3.7589    0.3606    0.0000 C   0  0
   -4.4327   -0.1153    0.0000 N   0  0
   -4.1882   -0.9033    0.0000 N   0  0
   -4.5833   -1.4320    0.0000 C   0  0
   -3.3634   -0.9143    0.0000 C   0  0
    2.3740   -2.5998    0.0000 H   0  0
  1  2  1  0
  2  3  1  0
  2 10  1  0
  3  4  1  0
  4  5  1  0
  5  6  1  0
  6  7  1  0
  7  8  1  0
  8  9  1  0
  9  4  1  0
 10 11  2  0
 10 12  2  0
 10 13  1  0
 13 14  1  0
 13 36  1  0
 14 15  2  0
 15 16  1  0
 16 17  2  0
 17 18  1  0
 18 19  2  0
 19 20  1  0
 20 21  2  0
 21 22  1  0
 22 23  2  0
 23 24  1  0
 23 30  1  0
 24 25  2  0
 25 20  1  0
 25 26  1  0
 26 27  2  0
 26 28  1  0
 28 17  1  0
 28 29  2  0
 29 14  1  0
 30 31  1  0
 31 32  2  0
 32 33  1  0
 33 34  1  0
 33 35  1  0
 35 30  2  0
M  END
> <CMPD_CHEMBLID>
CHEMBL1822792

> <STANDARD_TYPE>
IC50

> <RELATION>
=

> <STANDARD_VALUE>
7800

> <STANDARD_UNITS>
nM

> <Molecular_Weight>
495.5508

$$$$

  SciTegic11272012012D

 28 31  0  0  0  0            999 V2000
    5.5682   -3.2278    0.0000 C   0  0
    4.9976   -2.8960    0.0000 N   0  0
    5.0002   -2.0709    0.0000 C   0  0
    4.2870   -1.6562    0.0000 C   0  0
    3.5712   -2.0664    0.0000 N   0  0
    3.5687   -2.8914    0.0000 C   0  0
    4.2818   -3.3061    0.0000 C   0  0
    2.8570   -1.6525    0.0000 C   0  0
    2.8583   -0.8275    0.0000 C   0  0
    2.1445   -0.4139    0.0000 C   0  0
    1.4293   -0.8252    0.0000 C   0  0
    1.4281   -1.6502    0.0000 C   0  0
    2.1419   -2.0639    0.0000 C   0  0
    0.7145   -0.4125    0.0000 C   0  0
    0.7145    0.4125    0.0000 C   0  0
    0.0000    0.8250    0.0000 C   0  0
   -0.7145    0.4125    0.0000 C   0  0
   -0.7145   -0.4125    0.0000 C   0  0
   -1.2861   -0.7425    0.0000 O   0  0
    0.0000   -0.8250    0.0000 N   0  0
   -1.3273    0.9642    0.0000 C   0  0
   -2.1337    0.7943    0.0000 N   0  0
   -0.9918    1.7178    0.0000 N   0  0
   -0.1713    1.6316    0.0000 N   0  0
    0.2704    2.1220    0.0000 C   0  0
   -2.5013    1.2035    0.0000 H   0  0
   -2.3045    0.2715    0.0000 H   0  0
    0.0000   -1.3750    0.0000 H   0  0
  1  2  1  0
  2  3  1  0
  3  4  1  0
  4  5  1  0
  5  6  1  0
  5  8  1  0
  6  7  1  0
  7  2  1  0
  8  9  2  0
  9 10  1  0
 10 11  2  0
 11 12  1  0
 11 14  1  0
 12 13  2  0
 13  8  1  0
 14 15  2  0
 15 16  1  0
 16 17  2  0
 17 18  1  0
 17 21  1  0
 18 19  2  0
 18 20  1  0
 20 14  1  0
 20 28  1  0
 21 22  1  0
 21 23  2  0
 22 26  1  0
 22 27  1  0
 23 24  1  0
 24 16  1  0
 24 25  1  0
M  END
> <CMPD_CHEMBLID>
CHEMBL1813625

> <STANDARD_TYPE>
IC50

> <RELATION>
=

> <STANDARD_VALUE>
7800

> <STANDARD_UNITS>
nM

> <Molecular_Weight>
338.40688

$$$$

  SciTegic11272012012D

 24 26  0  0  0  0            999 V2000
   -0.1742   -2.8725    0.0000 C   0  0
   -0.3790   -2.2450    0.0000 C   0  0
   -1.0247   -2.1088    0.0000 C   0  0
    0.1713   -1.6316    0.0000 N   0  0
    0.9918   -1.7179    0.0000 N   0  0
    1.3273   -0.9642    0.0000 C   0  0
    2.1348   -0.7925    0.0000 C   0  0
    2.7291   -1.3607    0.0000 C   0  0
    3.5209   -1.1288    0.0000 C   0  0
    3.7159   -0.3272    0.0000 C   0  0
    4.5077   -0.0936    0.0000 C   0  0
    4.7017    0.7087    0.0000 C   0  0
    4.8569    1.3503    0.0000 N   0  0
    3.1193    0.2426    0.0000 C   0  0
    2.3275    0.0107    0.0000 C   0  0
    0.7145   -0.4125    0.0000 C   0  0
    0.7145    0.4125    0.0000 C   0  0
    1.4285    0.8267    0.0000 N   0  0
    0.0000    0.8250    0.0000 N   0  0
   -0.7145    0.4125    0.0000 C   0  0
   -0.7145   -0.4125    0.0000 N   0  0
    0.0000   -0.8250    0.0000 C   0  0
    1.4277    1.3767    0.0000 H   0  0
    1.9053    0.5525    0.0000 H   0  0
  1  2  1  0
  2  3  1  0
  2  4  1  0
  4  5  1  0
  5  6  2  0
  6  7  1  0
  6 16  1  0
  7  8  2  0
  8  9  1  0
  9 10  2  0
 10 11  1  0
 10 14  1  0
 11 12  1  0
 12 13  3  0
 14 15  2  0
 15  7  1  0
 16 17  2  0
 17 18  1  0
 17 19  1  0
 18 23  1  0
 18 24  1  0
 19 20  2  0
 20 21  1  0
 21 22  2  0
 22  4  1  0
 22 16  1  0
M  END
> <CMPD_CHEMBLID>
CHEMBL1240545

> <STANDARD_TYPE>
IC50

> <RELATION>
=

> <STANDARD_VALUE>
7900

> <STANDARD_UNITS>
nM

> <Molecular_Weight>
292.33844

$$$$

  SciTegic11272012012D

 29 32  0  0  0  0            999 V2000
    1.4302   -0.8237    0.0000 N   0  0
    0.7144   -0.4125    0.0000 C   0  0
    0.7144    0.4125    0.0000 N   0  0
    0.0000    0.8250    0.0000 C   0  0
   -0.7144    0.4125    0.0000 N   0  0
   -0.7144   -0.4125    0.0000 C   0  0
    0.0000   -0.8250    0.0000 C   0  0
   -0.1713   -1.6316    0.0000 C   0  0
   -0.9918   -1.7178    0.0000 N   0  0
   -1.3273   -0.9641    0.0000 N   0  0
   -2.1337   -0.7943    0.0000 C   0  0
   -2.6852   -1.4084    0.0000 C   0  0
   -3.4928   -1.2396    0.0000 C   0  0
   -4.0428   -1.8545    0.0000 C   0  0
   -3.7853   -2.6383    0.0000 C   0  0
   -2.9778   -2.8072    0.0000 N   0  0
   -2.4277   -2.1922    0.0000 C   0  0
    0.3811   -2.2449    0.0000 C   0  0
    1.1959   -2.1344    0.0000 C   0  0
    1.7002   -2.7873    0.0000 C   0  0
    1.3870   -3.5505    0.0000 C   0  0
    1.7905   -4.0728    0.0000 Cl  0  0
    0.5694   -3.6609    0.0000 C   0  0
    0.2544   -4.4239    0.0000 O   0  0
    0.0651   -3.0080    0.0000 C   0  0
   -0.2907   -4.4966    0.0000 H   0  0
   -2.8061   -3.3297    0.0000 H   0  0
    1.9061   -0.5481    0.0000 H   0  0
    1.4311   -1.3737    0.0000 H   0  0
  1  2  1  0
  1 28  1  0
  1 29  1  0
  2  3  2  0
  3  4  1  0
  4  5  2  0
  5  6  1  0
  6  7  2  0
  7  2  1  0
  7  8  1  0
  8  9  2  0
  8 18  1  0
  9 10  1  0
 10  6  1  0
 10 11  1  0
 11 12  1  0
 12 13  1  0
 13 14  1  0
 14 15  1  0
 15 16  1  0
 16 17  1  0
 16 27  1  0
 17 12  1  0
 18 19  2  0
 19 20  1  0
 20 21  2  0
 21 22  1  0
 21 23  1  0
 23 24  1  0
 23 25  2  0
 24 26  1  0
 25 18  1  0
M  END
> <CMPD_CHEMBLID>
CHEMBL1241858

> <STANDARD_TYPE>
IC50

> <RELATION>
=

> <STANDARD_VALUE>
7930

> <STANDARD_UNITS>
nM

> <Molecular_Weight>
358.82536

$$$$

  SciTegic11272012012D

 19 22  0  0  0  0            999 V2000
    0.9918   -1.7179    0.0000 C   0  0
    1.3273   -0.9642    0.0000 O   0  0
    0.7145   -0.4125    0.0000 C   0  0
    0.7145    0.4125    0.0000 C   0  0
    0.0000    0.8250    0.0000 C   0  0
   -0.7145    0.4125    0.0000 C   0  0
   -0.7145   -0.4125    0.0000 C   0  0
    0.0000   -0.8250    0.0000 C   0  0
    0.1713   -1.6316    0.0000 O   0  0
   -1.4293    0.8252    0.0000 C   0  0
   -2.1432    0.4116    0.0000 N   0  0
   -2.8584    0.8230    0.0000 C   0  0
   -2.8597    1.6480    0.0000 N   0  0
   -2.1458    2.0617    0.0000 C   0  0
   -1.9758    2.8685    0.0000 N   0  0
   -1.1555    2.9560    0.0000 C   0  0
   -0.8187    2.2029    0.0000 C   0  0
   -1.4307    1.6503    0.0000 C   0  0
   -2.3445    3.2766    0.0000 H   0  0
  1  2  1  0
  2  3  1  0
  3  4  2  0
  4  5  1  0
  5  6  2  0
  6  7  1  0
  6 10  1  0
  7  8  2  0
  8  3  1  0
  8  9  1  0
  9  1  1  0
 10 11  2  0
 11 12  1  0
 12 13  2  0
 13 14  1  0
 14 15  1  0
 15 16  1  0
 15 19  1  0
 16 17  2  0
 17 18  1  0
 18 10  1  0
 18 14  2  0
M  END
> <CMPD_CHEMBLID>
CHEMBL2004515

> <STANDARD_TYPE>
Ki

> <RELATION>
=

> <STANDARD_VALUE>
7943.28

> <STANDARD_UNITS>
nM

> <Molecular_Weight>
239.22946

$$$$

  SciTegic11272012012D

 24 26  0  0  0  0            999 V2000
    1.4273   -1.6521    0.0000 O   0  0
    1.4285   -0.8267    0.0000 C   0  0
    2.0006   -0.4977    0.0000 O   0  0
    0.7144   -0.4125    0.0000 C   0  0
    0.7144    0.4125    0.0000 C   0  0
    0.0000    0.8250    0.0000 C   0  0
   -0.7144    0.4125    0.0000 C   0  0
   -0.7144   -0.4125    0.0000 C   0  0
   -1.4285   -0.8267    0.0000 N   0  0
   -1.4273   -1.6521    0.0000 C   0  0
   -2.1403   -2.0672    0.0000 N   0  0
   -2.1375   -2.8922    0.0000 C   0  0
   -1.4216   -3.3022    0.0000 C   0  0
   -0.7086   -2.8872    0.0000 C   0  0
   -0.7114   -2.0622    0.0000 N   0  0
    0.0077   -3.2975    0.0000 C   0  0
    0.0119   -4.1225    0.0000 C   0  0
    0.7285   -4.5314    0.0000 C   0  0
    1.4408   -4.1153    0.0000 C   0  0
    1.4367   -3.2903    0.0000 N   0  0
    0.7201   -2.8814    0.0000 C   0  0
    0.0000   -0.8250    0.0000 C   0  0
   -1.9053   -0.5525    0.0000 H   0  0
    1.9031   -1.9281    0.0000 H   0  0
  1  2  1  0
  1 24  1  0
  2  3  2  0
  2  4  1  0
  4  5  2  0
  5  6  1  0
  6  7  2  0
  7  8  1  0
  8  9  1  0
  8 22  2  0
  9 10  1  0
  9 23  1  0
 10 11  2  0
 11 12  1  0
 12 13  2  0
 13 14  1  0
 14 15  2  0
 14 16  1  0
 15 10  1  0
 16 17  2  0
 17 18  1  0
 18 19  2  0
 19 20  1  0
 20 21  2  0
 21 16  1  0
 22  4  1  0
M  END
> <CMPD_CHEMBLID>
CHEMBL57556

> <STANDARD_TYPE>
IC50

> <RELATION>
=

> <STANDARD_VALUE>
8000

> <STANDARD_UNITS>
nM

> <Molecular_Weight>
292.29208

$$$$

  SciTegic11272012012D

 27 30  0  0  0  0            999 V2000
   -0.1742   -2.8725    0.0000 C   0  0
   -0.3790   -2.2450    0.0000 C   0  0
   -1.0247   -2.1088    0.0000 C   0  0
    0.1713   -1.6316    0.0000 N   0  0
    0.9918   -1.7179    0.0000 N   0  0
    1.3273   -0.9642    0.0000 C   0  0
    2.1348   -0.7925    0.0000 C   0  0
    2.7291   -1.3607    0.0000 C   0  0
    3.5209   -1.1288    0.0000 C   0  0
    3.7159   -0.3272    0.0000 C   0  0
    4.4419    0.0639    0.0000 N   0  0
    4.2941    0.8756    0.0000 C   0  0
    4.7499    1.3529    0.0000 O   0  0
    3.4765    0.9858    0.0000 N   0  0
    3.1193    0.2426    0.0000 C   0  0
    2.3275    0.0107    0.0000 C   0  0
    0.7145   -0.4125    0.0000 C   0  0
    0.7145    0.4125    0.0000 C   0  0
    1.4285    0.8267    0.0000 N   0  0
    0.0000    0.8250    0.0000 N   0  0
   -0.7145    0.4125    0.0000 C   0  0
   -0.7145   -0.4125    0.0000 N   0  0
    0.0000   -0.8250    0.0000 C   0  0
    1.4277    1.3767    0.0000 H   0  0
    1.9053    0.5525    0.0000 H   0  0
    3.2155    1.4699    0.0000 H   0  0
    4.9376   -0.1745    0.0000 H   0  0
  1  2  1  0
  2  3  1  0
  2  4  1  0
  4  5  1  0
  5  6  2  0
  6  7  1  0
  6 17  1  0
  7  8  2  0
  8  9  1  0
  9 10  2  0
 10 11  1  0
 11 12  1  0
 11 27  1  0
 12 13  2  0
 12 14  1  0
 14 15  1  0
 14 26  1  0
 15 10  1  0
 15 16  2  0
 16  7  1  0
 17 18  2  0
 18 19  1  0
 18 20  1  0
 19 24  1  0
 19 25  1  0
 20 21  2  0
 21 22  1  0
 22 23  2  0
 23  4  1  0
 23 17  1  0
M  END
> <CMPD_CHEMBLID>
CHEMBL1241586

> <STANDARD_TYPE>
IC50

> <RELATION>
=

> <STANDARD_VALUE>
8400

> <STANDARD_UNITS>
nM

> <Molecular_Weight>
309.3259

$$$$

  SciTegic11272012012D

 30 32  0  0  0  0            999 V2000
    0.0477   -4.5998    0.0000 C   0  0
   -0.5860   -4.4152    0.0000 O   0  0
   -0.7828   -3.6136    0.0000 C   0  0
   -0.1861   -3.0438    0.0000 C   0  0
   -0.3810   -2.2450    0.0000 C   0  0
   -1.1730   -2.0103    0.0000 C   0  0
   -1.7697   -2.5801    0.0000 C   0  0
   -1.5746   -3.3817    0.0000 C   0  0
   -2.1728   -3.9506    0.0000 N   0  0
   -2.9647   -3.7175    0.0000 C   0  0
   -3.1196   -3.0759    0.0000 C   0  0
   -3.5628   -4.2863    0.0000 C   0  0
   -4.3547   -4.0532    0.0000 O   0  0
    0.1713   -1.6316    0.0000 C   0  0
    0.9918   -1.7179    0.0000 N   0  0
    1.3273   -0.9642    0.0000 N   0  0
    2.1337   -0.7943    0.0000 C   0  0
    2.5748   -1.2854    0.0000 C   0  0
    2.3387   -0.1669    0.0000 C   0  0
    0.7145   -0.4125    0.0000 C   0  0
    0.7145    0.4125    0.0000 N   0  0
    0.0000    0.8250    0.0000 C   0  0
   -0.7145    0.4125    0.0000 N   0  0
   -0.7145   -0.4125    0.0000 C   0  0
   -1.4302   -0.8238    0.0000 N   0  0
    0.0000   -0.8250    0.0000 C   0  0
   -1.9062   -0.5481    0.0000 H   0  0
   -1.4312   -1.3738    0.0000 H   0  0
   -4.7533   -4.4322    0.0000 H   0  0
   -2.0436   -4.4852    0.0000 H   0  0
  1  2  1  0
  2  3  1  0
  3  4  2  0
  4  5  1  0
  5  6  2  0
  5 14  1  0
  6  7  1  0
  7  8  2  0
  8  3  1  0
  8  9  1  0
  9 10  1  0
  9 30  1  0
 10 11  1  0
 10 12  1  0
 12 13  1  0
 13 29  1  0
 14 15  2  0
 15 16  1  0
 16 17  1  0
 16 20  1  0
 17 18  1  0
 17 19  1  0
 20 21  2  0
 21 22  1  0
 22 23  2  0
 23 24  1  0
 24 25  1  0
 24 26  2  0
 25 27  1  0
 25 28  1  0
 26 14  1  0
 26 20  1  0
M  END
> <CMPD_CHEMBLID>
CHEMBL1241486

> <STANDARD_TYPE>
IC50

> <RELATION>
=

> <STANDARD_VALUE>
8700

> <STANDARD_UNITS>
nM

> <Molecular_Weight>
356.42216

$$$$

  SciTegic11272012012D

 36 39  0  0  0  0            999 V2000
    1.2861   -0.7425    0.0000 C   0  0
    0.7144   -0.4125    0.0000 C   0  0
    0.7144    0.4125    0.0000 C   0  0
    0.0000    0.8250    0.0000 C   0  0
   -0.7144    0.4125    0.0000 C   0  0
   -1.4302    0.8237    0.0000 N   0  0
   -2.1444    0.4100    0.0000 C   0  0
   -2.1433   -0.2500    0.0000 O   0  0
   -2.8602    0.8213    0.0000 C   0  0
   -3.5747    0.4088    0.0000 C   0  0
   -4.2892    0.8213    0.0000 C   0  0
   -4.2892    1.6463    0.0000 C   0  0
   -3.5747    2.0588    0.0000 C   0  0
   -2.8602    1.6463    0.0000 C   0  0
   -5.0032    2.0604    0.0000 C   0  0
   -5.5754    1.7314    0.0000 O   0  0
   -5.0021    2.8859    0.0000 N   0  0
   -5.7161    3.3001    0.0000 O   0  0
   -0.7144   -0.4125    0.0000 C   0  0
    0.0000   -0.8250    0.0000 C   0  0
   -0.0017   -1.6504    0.0000 N   0  0
   -0.7171   -2.0622    0.0000 C   0  0
   -0.7958   -2.8764    0.0000 N   0  0
   -1.6034   -3.0451    0.0000 C   0  0
   -2.0134   -2.3292    0.0000 C   0  0
   -1.4592   -1.7180    0.0000 S   0  0
   -2.8340   -2.2400    0.0000 C   0  0
   -3.3678   -2.8655    0.0000 C   0  0
   -4.1789   -2.7150    0.0000 C   0  0
   -4.4541   -1.9372    0.0000 C   0  0
   -3.9181   -1.3100    0.0000 N   0  0
   -3.1070   -1.4605    0.0000 C   0  0
    0.4742   -1.9263    0.0000 H   0  0
   -5.7153    3.8501    0.0000 H   0  0
   -4.5253    3.1601    0.0000 H   0  0
   -1.4312    1.3737    0.0000 H   0  0
  1  2  1  0
  2  3  2  0
  3  4  1  0
  4  5  2  0
  5  6  1  0
  5 19  1  0
  6  7  1  0
  6 36  1  0
  7  8  2  0
  7  9  1  0
  9 10  2  0
 10 11  1  0
 11 12  2  0
 12 13  1  0
 12 15  1  0
 13 14  2  0
 14  9  1  0
 15 16  2  0
 15 17  1  0
 17 18  1  0
 17 35  1  0
 18 34  1  0
 19 20  2  0
 20  2  1  0
 20 21  1  0
 21 22  1  0
 21 33  1  0
 22 23  2  0
 23 24  1  0
 24 25  2  0
 25 26  1  0
 25 27  1  0
 26 22  1  0
 27 28  2  0
 28 29  1  0
 29 30  2  0
 30 31  1  0
 31 32  2  0
 32 27  1  0
M  END
> <CMPD_CHEMBLID>
CHEMBL521652

> <STANDARD_TYPE>
IC50

> <RELATION>
=

> <STANDARD_VALUE>
8900

> <STANDARD_UNITS>
nM

> <Molecular_Weight>
445.49366

$$$$

  SciTegic11272012012D

 38 41  0  0  0  0            999 V2000
    1.2861   -0.7425    0.0000 C   0  0
    0.7144   -0.4125    0.0000 C   0  0
    0.7144    0.4125    0.0000 C   0  0
    0.0000    0.8250    0.0000 C   0  0
   -0.7144    0.4125    0.0000 C   0  0
   -1.4302    0.8237    0.0000 N   0  0
   -2.1444    0.4100    0.0000 C   0  0
   -2.8601    0.8213    0.0000 C   0  0
   -3.5746    0.4088    0.0000 C   0  0
   -4.2891    0.8213    0.0000 C   0  0
   -4.2891    1.6463    0.0000 C   0  0
   -5.0032    2.0604    0.0000 C   0  0
   -5.0021    2.8859    0.0000 C   0  0
   -5.7161    3.3000    0.0000 C   0  0
   -6.2882    2.9710    0.0000 O   0  0
   -5.7149    4.1255    0.0000 N   0  0
   -6.4289    4.5397    0.0000 O   0  0
   -3.5747    2.0587    0.0000 C   0  0
   -2.8602    1.6463    0.0000 C   0  0
   -0.7144   -0.4125    0.0000 C   0  0
    0.0000   -0.8250    0.0000 C   0  0
   -0.0017   -1.6504    0.0000 N   0  0
   -0.7171   -2.0622    0.0000 C   0  0
   -0.7201   -2.8872    0.0000 N   0  0
   -1.4359   -3.2972    0.0000 C   0  0
   -2.1489   -2.8822    0.0000 C   0  0
   -2.1461   -2.0572    0.0000 C   0  0
   -1.4302   -1.6472    0.0000 N   0  0
   -2.8595   -1.6421    0.0000 C   0  0
   -3.5761   -2.0509    0.0000 C   0  0
   -4.2885   -1.6348    0.0000 C   0  0
   -4.2843   -0.8099    0.0000 C   0  0
   -3.5678   -0.4009    0.0000 N   0  0
   -2.8554   -0.8170    0.0000 C   0  0
    0.4742   -1.9263    0.0000 H   0  0
   -6.4281    5.0897    0.0000 H   0  0
   -5.2381    4.3997    0.0000 H   0  0
   -1.4311    1.3737    0.0000 H   0  0
  1  2  1  0
  2  3  2  0
  3  4  1  0
  4  5  2  0
  5  6  1  0
  5 20  1  0
  6  7  1  0
  6 38  1  0
  7  8  1  0
  8  9  2  0
  9 10  1  0
 10 11  2  0
 11 12  1  0
 11 18  1  0
 12 13  2  0
 13 14  1  0
 14 15  2  0
 14 16  1  0
 16 17  1  0
 16 37  1  0
 17 36  1  0
 18 19  2  0
 19  8  1  0
 20 21  2  0
 21  2  1  0
 21 22  1  0
 22 23  1  0
 22 35  1  0
 23 24  2  0
 24 25  1  0
 25 26  2  0
 26 27  1  0
 27 28  2  0
 27 29  1  0
 28 23  1  0
 29 30  2  0
 30 31  1  0
 31 32  2  0
 32 33  1  0
 33 34  2  0
 34 29  1  0
M  END
> <CMPD_CHEMBLID>
CHEMBL514351

> <STANDARD_TYPE>
IC50

> <RELATION>
=

> <STANDARD_VALUE>
9200

> <STANDARD_UNITS>
nM

> <Molecular_Weight>
452.50776

$$$$

  SciTegic11272012012D

 27 30  0  0  0  0            999 V2000
    2.1444   -0.4100    0.0000 C   0  0
    2.8601   -0.8213    0.0000 C   0  0
    3.5744   -0.4075    0.0000 C   0  0
    4.2904   -0.8175    0.0000 C   0  0
    5.0034   -0.4025    0.0000 C   0  0
    5.0005    0.4225    0.0000 C   0  0
    4.2846    0.8325    0.0000 C   0  0
    3.5716    0.4175    0.0000 C   0  0
    1.4302   -0.8237    0.0000 N   0  0
    0.7144   -0.4125    0.0000 C   0  0
    0.7144    0.4125    0.0000 N   0  0
    0.0000    0.8250    0.0000 C   0  0
   -0.7144    0.4125    0.0000 N   0  0
   -0.7144   -0.4125    0.0000 C   0  0
    0.0000   -0.8250    0.0000 C   0  0
   -0.1713   -1.6316    0.0000 C   0  0
   -0.9918   -1.7178    0.0000 N   0  0
   -1.3273   -0.9641    0.0000 N   0  0
   -2.1337   -0.7943    0.0000 C   0  0
   -2.6852   -1.4084    0.0000 C   0  0
   -3.4930   -1.2383    0.0000 C   0  0
   -4.0452   -1.8513    0.0000 C   0  0
   -4.8521   -1.6797    0.0000 C   0  0
   -5.1069   -0.8950    0.0000 C   0  0
   -4.5548   -0.2820    0.0000 C   0  0
   -3.7478   -0.4536    0.0000 C   0  0
    1.4311   -1.3737    0.0000 H   0  0
  1  2  1  0
  1  9  1  0
  2  3  1  0
  3  4  2  0
  4  5  1  0
  5  6  2  0
  6  7  1  0
  7  8  2  0
  8  3  1  0
  9 10  1  0
  9 27  1  0
 10 11  2  0
 11 12  1  0
 12 13  2  0
 13 14  1  0
 14 15  2  0
 15 10  1  0
 15 16  1  0
 16 17  2  0
 17 18  1  0
 18 14  1  0
 18 19  1  0
 19 20  2  0
 20 21  1  0
 21 22  2  0
 22 23  1  0
 23 24  2  0
 24 25  1  0
 25 26  2  0
 26 21  1  0
M  END
> <CMPD_CHEMBLID>
CHEMBL203493

> <STANDARD_TYPE>
Ki

> <RELATION>
=

> <STANDARD_VALUE>
9750

> <STANDARD_UNITS>
nM

> <Molecular_Weight>
341.40906

$$$$

  SciTegic11272012012D

 40 44  0  0  0  0            999 V2000
    0.2263   -4.5662    0.0000 C   0  0
   -0.4193   -4.4288    0.0000 C   0  0
   -0.9714   -5.0419    0.0000 C   0  0
   -1.7784   -4.8702    0.0000 C   0  0
   -2.0332   -4.0855    0.0000 C   0  0
   -2.8402   -3.9121    0.0000 N   0  0
   -3.0941   -3.1267    0.0000 C   0  0
   -2.6515   -2.6371    0.0000 O   0  0
   -3.9011   -2.9533    0.0000 C   0  0
   -4.1559   -2.1686    0.0000 C   0  0
   -4.9628   -1.9969    0.0000 C   0  0
   -5.5150   -2.6100    0.0000 C   0  0
   -5.2602   -3.3946    0.0000 C   0  0
   -4.4533   -3.5663    0.0000 C   0  0
   -5.8126   -4.0079    0.0000 C   0  0
   -6.4583   -3.8710    0.0000 F   0  0
   -5.6086   -4.6356    0.0000 F   0  0
   -6.2541   -4.4985    0.0000 F   0  0
   -1.4810   -3.4726    0.0000 C   0  0
   -0.6741   -3.6442    0.0000 C   0  0
   -0.1229   -3.0297    0.0000 C   0  0
   -0.3789   -2.2450    0.0000 C   0  0
    0.1713   -1.6316    0.0000 N   0  0
    0.9918   -1.7178    0.0000 C   0  0
    1.3273   -0.9641    0.0000 N   0  0
    0.7144   -0.4125    0.0000 C   0  0
    0.7144    0.4125    0.0000 C   0  0
    1.4285    0.8267    0.0000 N   0  0
    1.4273    1.6521    0.0000 C   0  0
    2.1403    2.0672    0.0000 C   0  0
    2.1375    2.8922    0.0000 C   0  0
    1.4216    3.3022    0.0000 N   0  0
    0.7086    2.8872    0.0000 C   0  0
    0.7114    2.0622    0.0000 C   0  0
    0.0000    0.8250    0.0000 N   0  0
   -0.7144    0.4125    0.0000 C   0  0
   -0.7144   -0.4125    0.0000 N   0  0
    0.0000   -0.8250    0.0000 C   0  0
    1.9052    0.5525    0.0000 H   0  0
   -3.2090   -4.3202    0.0000 H   0  0
  1  2  1  0
  2  3  2  0
  3  4  1  0
  4  5  2  0
  5  6  1  0
  5 19  1  0
  6  7  1  0
  6 40  1  0
  7  8  2  0
  7  9  1  0
  9 10  2  0
 10 11  1  0
 11 12  2  0
 12 13  1  0
 13 14  2  0
 13 15  1  0
 14  9  1  0
 15 16  1  0
 15 17  1  0
 15 18  1  0
 19 20  2  0
 20  2  1  0
 20 21  1  0
 21 22  2  0
 22 23  1  0
 23 24  1  0
 24 25  2  0
 25 26  1  0
 26 27  2  0
 27 28  1  0
 27 35  1  0
 28 29  1  0
 28 39  1  0
 29 30  2  0
 30 31  1  0
 31 32  2  0
 32 33  1  0
 33 34  2  0
 34 29  1  0
 35 36  2  0
 36 37  1  0
 37 38  2  0
 38 23  1  0
 38 26  1  0
M  END
> <CMPD_CHEMBLID>
CHEMBL551229

> <STANDARD_TYPE>
IC50

> <RELATION>
=

> <STANDARD_VALUE>
9900

> <STANDARD_UNITS>
nM

> <Molecular_Weight>
515.48921

$$$$

  SciTegic11272012012D

 28 32  0  0  0  0            999 V2000
    0.7144   -0.4125    0.0000 C   0  0
    0.7144    0.4125    0.0000 C   0  0
    0.0000    0.8250    0.0000 O   0  0
   -0.7144    0.4125    0.0000 C   0  0
   -1.4289    0.8250    0.0000 C   0  0
   -2.1434    0.4125    0.0000 C   0  0
   -2.8579    0.8250    0.0000 C   0  0
   -2.8596    1.6504    0.0000 N   0  0
   -3.5750    2.0622    0.0000 C   0  0
   -3.5779    2.8872    0.0000 N   0  0
   -4.2938    3.2972    0.0000 C   0  0
   -5.0069    2.8822    0.0000 C   0  0
   -5.0040    2.0572    0.0000 C   0  0
   -4.2881    1.6472    0.0000 N   0  0
   -5.7174    1.6420    0.0000 C   0  0
   -6.4340    2.0509    0.0000 C   0  0
   -7.1464    1.6348    0.0000 C   0  0
   -7.1422    0.8098    0.0000 C   0  0
   -6.4257    0.4009    0.0000 C   0  0
   -5.7133    0.8170    0.0000 C   0  0
   -3.5723    0.4125    0.0000 N   0  0
   -3.5723   -0.4125    0.0000 C   0  0
   -2.8578   -0.8250    0.0000 N   0  0
   -2.1434   -0.4125    0.0000 C   0  0
   -1.4289   -0.8250    0.0000 C   0  0
   -0.7144   -0.4125    0.0000 C   0  0
    0.0000   -0.8250    0.0000 O   0  0
   -2.3837    1.9263    0.0000 H   0  0
  1  2  1  0
  2  3  1  0
  3  4  1  0
  4  5  2  0
  5  6  1  0
  6  7  2  0
  7  8  1  0
  7 21  1  0
  8  9  1  0
  8 28  1  0
  9 10  2  0
 10 11  1  0
 11 12  2  0
 12 13  1  0
 13 14  2  0
 13 15  1  0
 14  9  1  0
 15 16  2  0
 16 17  1  0
 17 18  2  0
 18 19  1  0
 19 20  2  0
 20 15  1  0
 21 22  2  0
 22 23  1  0
 23 24  2  0
 24  6  1  0
 24 25  1  0
 25 26  2  0
 26  4  1  0
 26 27  1  0
 27  1  1  0
M  END
> <CMPD_CHEMBLID>
CHEMBL3297957

> <STANDARD_TYPE>
IC50

> <RELATION>
>

> <STANDARD_VALUE>
10000

> <STANDARD_UNITS>
nM

> <Molecular_Weight>
357.3654

$$$$

  SciTegic11272012012D

 37 41  0  0  0  0            999 V2000
    1.2861   -0.7425    0.0000 C   0  0
    0.7145   -0.4125    0.0000 N   0  0
    0.7145    0.4125    0.0000 C   0  0
    0.0000    0.8250    0.0000 C   0  0
   -0.7145    0.4125    0.0000 C   0  0
   -0.6944    1.2265    0.0000 O   0  0
   -0.7145   -0.4125    0.0000 C   0  0
    0.0000   -0.8250    0.0000 C   0  0
   -1.4096   -0.0119    0.0000 C   0  0
   -1.4655   -0.8280    0.0000 C   0  0
   -2.2680   -1.0192    0.0000 N   0  0
   -2.5851   -1.7813    0.0000 C   0  0
   -3.3904   -1.9478    0.0000 C   0  0
   -3.6492   -2.7312    0.0000 C   0  0
   -3.1001   -3.3470    0.0000 N   0  0
   -2.2923   -3.1795    0.0000 C   0  0
   -1.7417   -3.7945    0.0000 N   0  0
   -0.9337   -3.6256    0.0000 C   0  0
   -0.3331   -4.1810    0.0000 C   0  0
    0.3820   -3.7695    0.0000 C   0  0
    0.2116   -2.9623    0.0000 C   0  0
   -0.6088   -2.8749    0.0000 C   0  0
   -2.0335   -2.3961    0.0000 N   0  0
   -2.6979   -0.3150    0.0000 C   0  0
   -2.1610    0.3114    0.0000 N   0  0
   -3.5206   -0.2489    0.0000 C   0  0
   -4.0368   -0.8890    0.0000 C   0  0
   -4.8518   -0.7613    0.0000 C   0  0
   -5.1487    0.0085    0.0000 C   0  0
   -4.6305    0.6504    0.0000 C   0  0
   -3.8154    0.5227    0.0000 C   0  0
   -4.9275    1.4206    0.0000 C   0  0
   -5.5795    1.5233    0.0000 F   0  0
   -4.5127    1.9341    0.0000 F   0  0
   -5.1647    2.0366    0.0000 F   0  0
   -1.9133   -4.3170    0.0000 H   0  0
   -0.2182    1.5018    0.0000 H   0  0
  1  2  1  0
  2  3  1  0
  3  4  1  0
  4  5  1  0
  5  6  1  0
  5  7  1  0
  5  9  1  0
  6 37  1  0
  7  8  1  0
  8  2  1  0
  9 10  2  0
 10 11  1  0
 11 12  1  0
 11 24  1  0
 12 13  2  0
 13 14  1  0
 14 15  2  0
 15 16  1  0
 16 17  1  0
 16 23  2  0
 17 18  1  0
 17 36  1  0
 18 19  1  0
 19 20  1  0
 20 21  1  0
 21 22  1  0
 22 18  1  0
 23 12  1  0
 24 25  2  0
 24 26  1  0
 25  9  1  0
 26 27  2  0
 27 28  1  0
 28 29  2  0
 29 30  1  0
 30 31  2  0
 30 32  1  0
 31 26  1  0
 32 33  1  0
 32 34  1  0
 32 35  1  0
M  END
> <CMPD_CHEMBLID>
CHEMBL118258

> <STANDARD_TYPE>
IC50

> <RELATION>
>

> <STANDARD_VALUE>
10000

> <STANDARD_UNITS>
nM

> <Molecular_Weight>
486.53257

$$$$

  SciTegic11272012012D

 30 33  0  0  0  0            999 V2000
    2.1445   -0.4100    0.0000 N   0  0
    1.4302   -0.8237    0.0000 C   0  0
    1.4313   -1.4837    0.0000 O   0  0
    0.7145   -0.4125    0.0000 C   0  0
    0.7145    0.4125    0.0000 C   0  0
    0.0000    0.8250    0.0000 C   0  0
    0.0000    1.4850    0.0000 F   0  0
   -0.7145    0.4125    0.0000 C   0  0
   -0.7145   -0.4125    0.0000 C   0  0
   -1.3273   -0.9642    0.0000 C   0  0
   -0.9918   -1.7178    0.0000 N   0  0
   -1.4045   -2.4327    0.0000 C   0  0
   -2.2244   -2.4940    0.0000 C   0  0
   -2.5820   -3.2375    0.0000 C   0  0
   -2.1169   -3.9189    0.0000 N   0  0
   -1.2943   -3.8568    0.0000 C   0  0
   -0.9367   -3.1133    0.0000 C   0  0
   -2.4747   -4.6628    0.0000 C   0  0
   -3.2973   -4.7262    0.0000 C   0  0
   -3.6537   -5.4703    0.0000 C   0  0
   -3.1875   -6.1509    0.0000 C   0  0
   -3.8465   -6.1861    0.0000 F   0  0
   -2.8018   -6.6866    0.0000 F   0  0
   -2.3649   -6.0876    0.0000 C   0  0
   -2.0085   -5.3435    0.0000 C   0  0
   -0.1713   -1.6316    0.0000 C   0  0
    0.2704   -2.1220    0.0000 O   0  0
    0.0000   -0.8250    0.0000 C   0  0
    2.6214   -0.6840    0.0000 H   0  0
    2.1435    0.1400    0.0000 H   0  0
  1  2  1  0
  1 29  1  0
  1 30  1  0
  2  3  2  0
  2  4  1  0
  4  5  2  0
  5  6  1  0
  6  7  1  0
  6  8  2  0
  8  9  1  0
  9 10  1  0
 10 11  1  0
 11 12  1  0
 11 26  1  0
 12 13  1  0
 13 14  1  0
 14 15  1  0
 15 16  1  0
 15 18  1  0
 16 17  1  0
 17 12  1  0
 18 19  1  0
 19 20  1  0
 20 21  1  0
 21 22  1  0
 21 23  1  0
 21 24  1  0
 24 25  1  0
 25 18  1  0
 26 27  2  0
 26 28  1  0
 28  4  1  0
 28  9  2  0
M  END
> <CMPD_CHEMBLID>
CHEMBL3606021

> <STANDARD_TYPE>
IC50

> <RELATION>
>

> <STANDARD_VALUE>
10000

> <STANDARD_UNITS>
nM

> <Molecular_Weight>
395.41867

$$$$

  SciTegic11272012012D

 36 40  0  0  0  0            999 V2000
    3.4274   -1.9912    0.0000 C   0  0
    2.8575   -1.6584    0.0000 O   0  0
    2.1403   -2.0672    0.0000 C   0  0
    2.1375   -2.8922    0.0000 C   0  0
    1.4216   -3.3022    0.0000 C   0  0
    0.7086   -2.8872    0.0000 C   0  0
    0.7114   -2.0622    0.0000 C   0  0
    1.4273   -1.6521    0.0000 C   0  0
    1.4285   -0.8267    0.0000 N   0  0
    0.7144   -0.4125    0.0000 C   0  0
    0.7144    0.4125    0.0000 N   0  0
    0.0000    0.8250    0.0000 C   0  0
   -0.7144    0.4125    0.0000 C   0  0
   -1.4290    0.8250    0.0000 C   0  0
   -2.1434    0.4125    0.0000 C   0  0
   -2.1434   -0.4125    0.0000 C   0  0
   -2.7563   -0.9641    0.0000 C   0  0
   -2.4207   -1.7178    0.0000 N   0  0
   -1.6002   -1.6316    0.0000 N   0  0
   -1.1586   -2.1220    0.0000 C   0  0
   -1.4290   -0.8250    0.0000 C   0  0
   -0.7144   -0.4125    0.0000 C   0  0
    0.0000   -0.8250    0.0000 N   0  0
   -3.5626   -0.7944    0.0000 C   0  0
   -3.7676   -0.1670    0.0000 O   0  0
   -4.1142   -1.4084    0.0000 N   0  0
   -0.0077   -3.2975    0.0000 N   0  0
   -0.0119   -4.1225    0.0000 C   0  0
   -0.7284   -4.5314    0.0000 C   0  0
   -1.4408   -4.1153    0.0000 N   0  0
   -2.0140   -4.4424    0.0000 C   0  0
   -1.4367   -3.2903    0.0000 C   0  0
   -0.7201   -2.8814    0.0000 C   0  0
   -4.6524   -1.2951    0.0000 H   0  0
   -3.9434   -1.9313    0.0000 H   0  0
    1.9053   -0.5525    0.0000 H   0  0
  1  2  1  0
  2  3  1  0
  3  4  2  0
  4  5  1  0
  5  6  2  0
  6  7  1  0
  6 27  1  0
  7  8  2  0
  8  3  1  0
  8  9  1  0
  9 10  1  0
  9 36  1  0
 10 11  2  0
 11 12  1  0
 12 13  2  0
 13 14  1  0
 14 15  1  0
 15 16  1  0
 16 17  1  0
 17 18  2  0
 17 24  1  0
 18 19  1  0
 19 20  1  0
 19 21  1  0
 21 16  2  0
 21 22  1  0
 22 13  1  0
 22 23  2  0
 23 10  1  0
 24 25  2  0
 24 26  1  0
 26 34  1  0
 26 35  1  0
 27 28  1  0
 28 29  1  0
 29 30  1  0
 30 31  1  0
 30 32  1  0
 32 33  1  0
 33 27  1  0
M  END
> <CMPD_CHEMBLID>
CHEMBL1094408

> <STANDARD_TYPE>
IC50

> <RELATION>
>

> <STANDARD_VALUE>
10000

> <STANDARD_UNITS>
nM

> <Molecular_Weight>
448.52082

$$$$

  SciTegic11272012012D

 28 32  0  0  0  0            999 V2000
    0.7144   -0.4125    0.0000 C   0  0
    0.7144    0.4125    0.0000 C   0  0
    0.0000    0.8250    0.0000 O   0  0
   -0.7144    0.4125    0.0000 C   0  0
   -1.4289    0.8250    0.0000 C   0  0
   -2.1434    0.4125    0.0000 C   0  0
   -2.8579    0.8250    0.0000 C   0  0
   -2.8596    1.6504    0.0000 N   0  0
   -3.5750    2.0622    0.0000 C   0  0
   -3.5779    2.8872    0.0000 C   0  0
   -4.2938    3.2972    0.0000 C   0  0
   -5.0069    2.8822    0.0000 C   0  0
   -5.0040    2.0572    0.0000 C   0  0
   -4.2881    1.6472    0.0000 C   0  0
   -5.7174    1.6420    0.0000 C   0  0
   -6.4340    2.0509    0.0000 C   0  0
   -7.1464    1.6348    0.0000 C   0  0
   -7.1422    0.8098    0.0000 C   0  0
   -6.4257    0.4009    0.0000 C   0  0
   -5.7133    0.8170    0.0000 N   0  0
   -3.5723    0.4125    0.0000 N   0  0
   -3.5723   -0.4125    0.0000 C   0  0
   -2.8578   -0.8250    0.0000 N   0  0
   -2.1434   -0.4125    0.0000 C   0  0
   -1.4289   -0.8250    0.0000 C   0  0
   -0.7144   -0.4125    0.0000 C   0  0
    0.0000   -0.8250    0.0000 O   0  0
   -2.3837    1.9263    0.0000 H   0  0
  1  2  1  0
  2  3  1  0
  3  4  1  0
  4  5  2  0
  5  6  1  0
  6  7  2  0
  7  8  1  0
  7 21  1  0
  8  9  1  0
  8 28  1  0
  9 10  2  0
 10 11  1  0
 11 12  2  0
 12 13  1  0
 13 14  2  0
 13 15  1  0
 14  9  1  0
 15 16  2  0
 16 17  1  0
 17 18  2  0
 18 19  1  0
 19 20  2  0
 20 15  1  0
 21 22  2  0
 22 23  1  0
 23 24  2  0
 24  6  1  0
 24 25  1  0
 25 26  2  0
 26  4  1  0
 26 27  1  0
 27  1  1  0
M  END
> <CMPD_CHEMBLID>
CHEMBL3297956

> <STANDARD_TYPE>
IC50

> <RELATION>
>

> <STANDARD_VALUE>
10000

> <STANDARD_UNITS>
nM

> <Molecular_Weight>
356.37734

$$$$

  SciTegic11272012012D

 27 31  0  0  0  0            999 V2000
    0.7144   -0.4125    0.0000 C   0  0
    0.7144    0.4125    0.0000 C   0  0
    0.0000    0.8250    0.0000 O   0  0
   -0.7144    0.4125    0.0000 C   0  0
   -1.4290    0.8250    0.0000 C   0  0
   -2.1434    0.4125    0.0000 C   0  0
   -2.8579    0.8250    0.0000 C   0  0
   -2.8596    1.6504    0.0000 N   0  0
   -3.5751    2.0622    0.0000 C   0  0
   -3.5780    2.8872    0.0000 C   0  0
   -4.2938    3.2972    0.0000 C   0  0
   -5.0069    2.8822    0.0000 C   0  0
   -5.0041    2.0572    0.0000 C   0  0
   -4.2881    1.6472    0.0000 C   0  0
   -5.7174    1.6420    0.0000 C   0  0
   -6.4624    1.9798    0.0000 C   0  0
   -7.0113    1.3639    0.0000 C   0  0
   -6.5953    0.6516    0.0000 C   0  0
   -5.7891    0.8271    0.0000 S   0  0
   -3.5724    0.4125    0.0000 N   0  0
   -3.5724   -0.4125    0.0000 C   0  0
   -2.8579   -0.8250    0.0000 N   0  0
   -2.1434   -0.4125    0.0000 C   0  0
   -1.4290   -0.8250    0.0000 C   0  0
   -0.7144   -0.4125    0.0000 C   0  0
    0.0000   -0.8250    0.0000 O   0  0
   -2.3838    1.9263    0.0000 H   0  0
  1  2  1  0
  2  3  1  0
  3  4  1  0
  4  5  2  0
  5  6  1  0
  6  7  2  0
  7  8  1  0
  7 20  1  0
  8  9  1  0
  8 27  1  0
  9 10  2  0
 10 11  1  0
 11 12  2  0
 12 13  1  0
 13 14  2  0
 13 15  1  0
 14  9  1  0
 15 16  2  0
 16 17  1  0
 17 18  2  0
 18 19  1  0
 19 15  1  0
 20 21  2  0
 21 22  1  0
 22 23  2  0
 23  6  1  0
 23 24  1  0
 24 25  2  0
 25  4  1  0
 25 26  1  0
 26  1  1  0
M  END
> <CMPD_CHEMBLID>
CHEMBL3297955

> <STANDARD_TYPE>
IC50

> <RELATION>
>

> <STANDARD_VALUE>
10000

> <STANDARD_UNITS>
nM

> <Molecular_Weight>
361.417

$$$$

  SciTegic11272012012D

 33 37  0  0  0  0            999 V2000
    1.9982   -1.9833    0.0000 C   0  0
    1.4273   -1.6521    0.0000 C   0  0
    1.4285   -0.8267    0.0000 O   0  0
    0.7144   -0.4125    0.0000 C   0  0
    0.7144    0.4125    0.0000 C   0  0
    0.0000    0.8250    0.0000 C   0  0
   -0.7144    0.4125    0.0000 C   0  0
   -1.4290    0.8250    0.0000 C   0  0
   -2.1434    0.4125    0.0000 C   0  0
   -2.1434   -0.4125    0.0000 C   0  0
   -1.4290   -0.8250    0.0000 C   0  0
   -0.7144   -0.4125    0.0000 C   0  0
    0.0000   -0.8250    0.0000 N   0  0
   -2.8582    0.8252    0.0000 C   0  0
   -3.6010    0.4826    0.0000 N   0  0
   -4.1539    1.0949    0.0000 N   0  0
   -4.9732    1.0061    0.0000 C   0  0
   -5.3069    0.2511    0.0000 C   0  0
   -6.1270    0.1609    0.0000 C   0  0
   -6.4590   -0.5943    0.0000 C   0  0
   -5.9709   -1.2595    0.0000 N   0  0
   -5.1509   -1.1694    0.0000 C   0  0
   -4.8188   -0.4142    0.0000 C   0  0
   -3.7426    1.8095    0.0000 C   0  0
   -3.9986    2.5937    0.0000 N   0  0
   -3.4475    3.2077    0.0000 C   0  0
   -2.6403    3.0373    0.0000 N   0  0
   -2.3842    2.2530    0.0000 C   0  0
   -1.5762    2.0842    0.0000 N   0  0
   -2.9353    1.6391    0.0000 C   0  0
   -1.2093    2.4940    0.0000 H   0  0
   -1.4045    1.5617    0.0000 H   0  0
   -6.1922   -1.7630    0.0000 H   0  0
  1  2  1  0
  2  3  1  0
  3  4  1  0
  4  5  2  0
  5  6  1  0
  6  7  2  0
  7  8  1  0
  8  9  2  0
  9 10  1  0
  9 14  1  0
 10 11  2  0
 11 12  1  0
 12  7  1  0
 12 13  2  0
 13  4  1  0
 14 15  2  0
 15 16  1  0
 16 17  1  0
 16 24  1  0
 17 18  1  0
 18 19  1  0
 19 20  1  0
 20 21  1  0
 21 22  1  0
 21 33  1  0
 22 23  1  0
 23 18  1  0
 24 25  2  0
 25 26  1  0
 26 27  2  0
 27 28  1  0
 28 29  1  0
 28 30  2  0
 29 31  1  0
 29 32  1  0
 30 14  1  0
 30 24  1  0
M  END
> <CMPD_CHEMBLID>
CHEMBL2070051

> <STANDARD_TYPE>
IC50

> <RELATION>
>

> <STANDARD_VALUE>
10000

> <STANDARD_UNITS>
nM

> <Molecular_Weight>
403.4802

$$$$

  SciTegic11272012012D

 33 37  0  0  0  0            999 V2000
    1.9982   -1.9833    0.0000 C   0  0
    1.4273   -1.6521    0.0000 C   0  0
    1.4285   -0.8267    0.0000 O   0  0
    0.7144   -0.4125    0.0000 C   0  0
    0.7144    0.4125    0.0000 C   0  0
    0.0000    0.8250    0.0000 C   0  0
   -0.7144    0.4125    0.0000 C   0  0
   -1.4290    0.8250    0.0000 C   0  0
   -2.1434    0.4125    0.0000 C   0  0
   -2.1434   -0.4125    0.0000 C   0  0
   -1.4290   -0.8250    0.0000 C   0  0
   -0.7144   -0.4125    0.0000 C   0  0
    0.0000   -0.8250    0.0000 C   0  0
   -2.8582    0.8252    0.0000 C   0  0
   -3.6010    0.4826    0.0000 N   0  0
   -4.1539    1.0949    0.0000 N   0  0
   -4.9732    1.0061    0.0000 C   0  0
   -5.3069    0.2511    0.0000 C   0  0
   -6.1270    0.1609    0.0000 C   0  0
   -6.4590   -0.5943    0.0000 C   0  0
   -5.9709   -1.2595    0.0000 N   0  0
   -5.1509   -1.1694    0.0000 C   0  0
   -4.8188   -0.4142    0.0000 C   0  0
   -3.7426    1.8095    0.0000 C   0  0
   -3.9986    2.5937    0.0000 N   0  0
   -3.4475    3.2077    0.0000 C   0  0
   -2.6403    3.0373    0.0000 N   0  0
   -2.3842    2.2530    0.0000 C   0  0
   -1.5762    2.0842    0.0000 N   0  0
   -2.9353    1.6391    0.0000 C   0  0
   -1.2093    2.4940    0.0000 H   0  0
   -1.4045    1.5617    0.0000 H   0  0
   -6.1922   -1.7630    0.0000 H   0  0
  1  2  1  0
  2  3  1  0
  3  4  1  0
  4  5  2  0
  5  6  1  0
  6  7  2  0
  7  8  1  0
  8  9  2  0
  9 10  1  0
  9 14  1  0
 10 11  2  0
 11 12  1  0
 12  7  1  0
 12 13  2  0
 13  4  1  0
 14 15  2  0
 15 16  1  0
 16 17  1  0
 16 24  1  0
 17 18  1  0
 18 19  1  0
 19 20  1  0
 20 21  1  0
 21 22  1  0
 21 33  1  0
 22 23  1  0
 23 18  1  0
 24 25  2  0
 25 26  1  0
 26 27  2  0
 27 28  1  0
 28 29  1  0
 28 30  2  0
 29 31  1  0
 29 32  1  0
 30 14  1  0
 30 24  1  0
M  END
> <CMPD_CHEMBLID>
CHEMBL2070050

> <STANDARD_TYPE>
IC50

> <RELATION>
>

> <STANDARD_VALUE>
10000

> <STANDARD_UNITS>
nM

> <Molecular_Weight>
402.49214

$$$$

  SciTegic11272012012D

 32 36  0  0  0  0            999 V2000
    1.4276   -1.4867    0.0000 C   0  0
    1.4285   -0.8267    0.0000 O   0  0
    0.7144   -0.4125    0.0000 C   0  0
    0.7144    0.4125    0.0000 C   0  0
    0.0000    0.8250    0.0000 C   0  0
   -0.7144    0.4125    0.0000 C   0  0
   -1.4290    0.8250    0.0000 C   0  0
   -2.1434    0.4125    0.0000 C   0  0
   -2.1434   -0.4125    0.0000 C   0  0
   -1.4290   -0.8250    0.0000 C   0  0
   -0.7144   -0.4125    0.0000 C   0  0
    0.0000   -0.8250    0.0000 C   0  0
   -2.8582    0.8252    0.0000 C   0  0
   -3.6010    0.4826    0.0000 N   0  0
   -4.1539    1.0949    0.0000 N   0  0
   -4.9732    1.0061    0.0000 C   0  0
   -5.3069    0.2511    0.0000 C   0  0
   -6.1270    0.1609    0.0000 C   0  0
   -6.4590   -0.5943    0.0000 C   0  0
   -5.9709   -1.2595    0.0000 N   0  0
   -5.1509   -1.1694    0.0000 C   0  0
   -4.8188   -0.4142    0.0000 C   0  0
   -3.7426    1.8095    0.0000 C   0  0
   -3.9986    2.5937    0.0000 N   0  0
   -3.4475    3.2077    0.0000 C   0  0
   -2.6403    3.0373    0.0000 N   0  0
   -2.3842    2.2530    0.0000 C   0  0
   -1.5762    2.0842    0.0000 N   0  0
   -2.9353    1.6391    0.0000 C   0  0
   -1.2093    2.4940    0.0000 H   0  0
   -1.4045    1.5617    0.0000 H   0  0
   -6.1922   -1.7630    0.0000 H   0  0
  1  2  1  0
  2  3  1  0
  3  4  2  0
  4  5  1  0
  5  6  2  0
  6  7  1  0
  7  8  2  0
  8  9  1  0
  8 13  1  0
  9 10  2  0
 10 11  1  0
 11  6  1  0
 11 12  2  0
 12  3  1  0
 13 14  2  0
 14 15  1  0
 15 16  1  0
 15 23  1  0
 16 17  1  0
 17 18  1  0
 18 19  1  0
 19 20  1  0
 20 21  1  0
 20 32  1  0
 21 22  1  0
 22 17  1  0
 23 24  2  0
 24 25  1  0
 25 26  2  0
 26 27  1  0
 27 28  1  0
 27 29  2  0
 28 30  1  0
 28 31  1  0
 29 13  1  0
 29 23  1  0
M  END
> <CMPD_CHEMBLID>
CHEMBL2070047

> <STANDARD_TYPE>
IC50

> <RELATION>
>

> <STANDARD_VALUE>
10000

> <STANDARD_UNITS>
nM

> <Molecular_Weight>
388.46556

$$$$

  SciTegic11272012012D

 41 45  0  0  0  0            999 V2000
    3.7568   -2.2870    0.0000 C   0  0
    4.0272   -1.6849    0.0000 C   0  0
    4.8485   -1.6017    0.0000 O   0  0
    3.5441   -1.0156    0.0000 C   0  0
    2.7242   -1.0988    0.0000 N   0  0
    2.1731   -0.4848    0.0000 C   0  0
    1.4293   -0.8252    0.0000 C   0  0
    1.5039   -1.6398    0.0000 C   0  0
    2.3106   -1.8126    0.0000 N   0  0
    0.7145   -0.4125    0.0000 C   0  0
    0.7145    0.4125    0.0000 C   0  0
    0.0000    0.8250    0.0000 N   0  0
   -0.7145    0.4125    0.0000 C   0  0
   -1.4285    0.8267    0.0000 N   0  0
   -0.7145   -0.4125    0.0000 C   0  0
   -1.3273   -0.9642    0.0000 C   0  0
   -0.9918   -1.7178    0.0000 C   0  0
   -0.1713   -1.6316    0.0000 S   0  0
    0.0000   -0.8250    0.0000 C   0  0
   -2.1347   -0.7924    0.0000 C   0  0
   -2.4465   -0.0316    0.0000 C   0  0
   -3.2641    0.0788    0.0000 C   0  0
   -3.7684   -0.5741    0.0000 C   0  0
   -4.5867   -0.4654    0.0000 N   0  0
   -5.0904   -1.1194    0.0000 C   0  0
   -4.8387   -1.7295    0.0000 O   0  0
   -5.9086   -1.0107    0.0000 N   0  0
   -6.4123   -1.6646    0.0000 C   0  0
   -7.2304   -1.5572    0.0000 C   0  0
   -7.7325   -2.2118    0.0000 C   0  0
   -7.4165   -2.9739    0.0000 C   0  0
   -6.5986   -3.0815    0.0000 C   0  0
   -6.3459   -3.6912    0.0000 C   0  0
   -6.0965   -2.4268    0.0000 C   0  0
   -3.4552   -1.3373    0.0000 C   0  0
   -2.6375   -1.4477    0.0000 C   0  0
   -6.1184   -0.5022    0.0000 H   0  0
   -4.7964    0.0430    0.0000 H   0  0
   -1.4277    1.3767    0.0000 H   0  0
   -1.9053    0.5525    0.0000 H   0  0
    5.1704   -2.0476    0.0000 H   0  0
  1  2  1  0
  2  3  1  0
  2  4  1  0
  3 41  1  0
  4  5  1  0
  5  6  1  0
  6  7  2  0
  7  8  1  0
  7 10  1  0
  8  9  2  0
  9  5  1  0
 10 11  2  0
 11 12  1  0
 12 13  2  0
 13 14  1  0
 13 15  1  0
 14 39  1  0
 14 40  1  0
 15 16  1  0
 16 17  2  0
 16 20  1  0
 17 18  1  0
 18 19  1  0
 19 10  1  0
 19 15  2  0
 20 21  2  0
 21 22  1  0
 22 23  2  0
 23 24  1  0
 23 35  1  0
 24 25  1  0
 24 38  1  0
 25 26  2  0
 25 27  1  0
 27 28  1  0
 27 37  1  0
 28 29  2  0
 29 30  1  0
 30 31  2  0
 31 32  1  0
 32 33  1  0
 32 34  2  0
 34 28  1  0
 35 36  2  0
 36 20  1  0
M  END
> <CMPD_CHEMBLID>
CHEMBL2062935

> <STANDARD_TYPE>
Ki

> <RELATION>
>

> <STANDARD_VALUE>
10000

> <STANDARD_UNITS>
nM

> <Molecular_Weight>
498.59934

$$$$

  SciTegic11272012012D

 29 32  0  0  0  0            999 V2000
   -2.2201   -5.3606    0.0000 C   0  0
   -1.7784   -4.8702    0.0000 N   0  0
   -0.9714   -5.0419    0.0000 C   0  0
   -0.4193   -4.4289    0.0000 C   0  0
   -0.6741   -3.6442    0.0000 N   0  0
   -0.1229   -3.0297    0.0000 C   0  0
   -0.3789   -2.2450    0.0000 C   0  0
    0.1713   -1.6316    0.0000 N   0  0
    0.9918   -1.7178    0.0000 C   0  0
    1.4053   -2.4306    0.0000 N   0  0
    1.3273   -0.9641    0.0000 N   0  0
    0.7144   -0.4125    0.0000 C   0  0
    0.7144    0.4125    0.0000 C   0  0
    0.0000    0.8250    0.0000 C   0  0
   -0.7144    0.4125    0.0000 C   0  0
   -0.7144   -0.4125    0.0000 C   0  0
    0.0000   -0.8250    0.0000 C   0  0
   -1.4302    0.8237    0.0000 C   0  0
   -1.4313    1.4837    0.0000 O   0  0
   -2.1444    0.4100    0.0000 C   0  0
   -2.8604    0.8200    0.0000 C   0  0
   -3.5735    0.4050    0.0000 C   0  0
   -3.5706   -0.4200    0.0000 C   0  0
   -2.8547   -0.8300    0.0000 C   0  0
   -2.1416   -0.4150    0.0000 C   0  0
   -1.4810   -3.4726    0.0000 C   0  0
   -2.0332   -4.0856    0.0000 C   0  0
    1.9553   -2.4298    0.0000 H   0  0
    1.1311   -2.9074    0.0000 H   0  0
  1  2  1  0
  2  3  1  0
  3  4  1  0
  4  5  1  0
  5  6  1  0
  5 26  1  0
  6  7  1  0
  7  8  1  0
  8  9  1  0
  9 10  1  0
  9 11  2  0
 10 28  1  0
 10 29  1  0
 11 12  1  0
 12 13  2  0
 13 14  1  0
 14 15  2  0
 15 16  1  0
 15 18  1  0
 16 17  2  0
 17  8  1  0
 17 12  1  0
 18 19  2  0
 18 20  1  0
 20 21  2  0
 21 22  1  0
 22 23  2  0
 23 24  1  0
 24 25  2  0
 25 20  1  0
 26 27  1  0
 27  2  1  0
M  END
> <CMPD_CHEMBLID>
CHEMBL2059361

> <STANDARD_TYPE>
IC50

> <RELATION>
>

> <STANDARD_VALUE>
10000

> <STANDARD_UNITS>
nM

> <Molecular_Weight>
363.4561

$$$$

  SciTegic11272012012D

 28 31  0  0  0  0            999 V2000
    1.4053   -2.4305    0.0000 N   0  0
    0.9918   -1.7178    0.0000 C   0  0
    1.3273   -0.9641    0.0000 N   0  0
    0.7144   -0.4125    0.0000 C   0  0
    0.7144    0.4125    0.0000 C   0  0
    0.0000    0.8250    0.0000 C   0  0
   -0.7144    0.4125    0.0000 C   0  0
   -0.7144   -0.4125    0.0000 C   0  0
    0.0000   -0.8250    0.0000 C   0  0
    0.1713   -1.6316    0.0000 N   0  0
   -0.3789   -2.2450    0.0000 C   0  0
   -0.1229   -3.0297    0.0000 C   0  0
   -0.6741   -3.6442    0.0000 C   0  0
   -1.4865   -3.5489    0.0000 C   0  0
   -1.8222   -4.3025    0.0000 C   0  0
   -1.2092   -4.8546    0.0000 C   0  0
   -0.4947   -4.4422    0.0000 N   0  0
   -1.4302    0.8237    0.0000 C   0  0
   -1.4313    1.4837    0.0000 O   0  0
   -2.1444    0.4100    0.0000 C   0  0
   -2.8604    0.8200    0.0000 C   0  0
   -3.5734    0.4050    0.0000 C   0  0
   -3.5706   -0.4200    0.0000 C   0  0
   -2.8546   -0.8300    0.0000 C   0  0
   -2.1416   -0.4150    0.0000 C   0  0
    0.0091   -4.6630    0.0000 H   0  0
    1.9553   -2.4298    0.0000 H   0  0
    1.1311   -2.9074    0.0000 H   0  0
  1  2  1  0
  1 27  1  0
  1 28  1  0
  2  3  2  0
  3  4  1  0
  4  5  2  0
  5  6  1  0
  6  7  2  0
  7  8  1  0
  7 18  1  0
  8  9  2  0
  9  4  1  0
  9 10  1  0
 10  2  1  0
 10 11  1  0
 11 12  1  0
 12 13  1  0
 13 14  1  0
 14 15  1  0
 15 16  1  0
 16 17  1  0
 17 13  1  0
 17 26  1  0
 18 19  2  0
 18 20  1  0
 20 21  2  0
 21 22  1  0
 22 23  2  0
 23 24  1  0
 24 25  2  0
 25 20  1  0
M  END
> <CMPD_CHEMBLID>
CHEMBL2059353

> <STANDARD_TYPE>
IC50

> <RELATION>
>

> <STANDARD_VALUE>
10000

> <STANDARD_UNITS>
nM

> <Molecular_Weight>
334.41488

$$$$

  SciTegic11272012012D

 29 32  0  0  0  0            999 V2000
   -2.2201   -5.3606    0.0000 C   0  0
   -1.7784   -4.8702    0.0000 N   0  0
   -0.9714   -5.0419    0.0000 C   0  0
   -0.4193   -4.4289    0.0000 C   0  0
   -0.6741   -3.6442    0.0000 C   0  0
   -0.1229   -3.0297    0.0000 C   0  0
   -0.3789   -2.2450    0.0000 C   0  0
    0.1713   -1.6316    0.0000 N   0  0
    0.9918   -1.7178    0.0000 C   0  0
    1.4053   -2.4305    0.0000 N   0  0
    1.3273   -0.9641    0.0000 N   0  0
    0.7144   -0.4125    0.0000 C   0  0
    0.7144    0.4125    0.0000 C   0  0
    0.0000    0.8250    0.0000 C   0  0
   -0.7144    0.4125    0.0000 C   0  0
   -0.7144   -0.4125    0.0000 C   0  0
    0.0000   -0.8250    0.0000 C   0  0
   -1.4302    0.8237    0.0000 C   0  0
   -1.4313    1.4837    0.0000 O   0  0
   -2.1444    0.4100    0.0000 C   0  0
   -2.8604    0.8200    0.0000 C   0  0
   -3.5734    0.4050    0.0000 C   0  0
   -3.5706   -0.4200    0.0000 C   0  0
   -2.8547   -0.8300    0.0000 C   0  0
   -2.1416   -0.4150    0.0000 C   0  0
   -1.4810   -3.4726    0.0000 C   0  0
   -2.0332   -4.0855    0.0000 C   0  0
    1.9553   -2.4298    0.0000 H   0  0
    1.1311   -2.9073    0.0000 H   0  0
  1  2  1  0
  2  3  1  0
  3  4  1  0
  4  5  1  0
  5  6  1  0
  5 26  1  0
  6  7  1  0
  7  8  1  0
  8  9  1  0
  9 10  1  0
  9 11  2  0
 10 28  1  0
 10 29  1  0
 11 12  1  0
 12 13  2  0
 13 14  1  0
 14 15  2  0
 15 16  1  0
 15 18  1  0
 16 17  2  0
 17  8  1  0
 17 12  1  0
 18 19  2  0
 18 20  1  0
 20 21  2  0
 21 22  1  0
 22 23  2  0
 23 24  1  0
 24 25  2  0
 25 20  1  0
 26 27  1  0
 27  2  1  0
M  END
> <CMPD_CHEMBLID>
CHEMBL2059177

> <STANDARD_TYPE>
IC50

> <RELATION>
>

> <STANDARD_VALUE>
10000

> <STANDARD_UNITS>
nM

> <Molecular_Weight>
362.46804

$$$$

  SciTegic11272012012D

 29 32  0  0  0  0            999 V2000
    1.4053   -2.4305    0.0000 N   0  0
    0.9918   -1.7178    0.0000 C   0  0
    1.3273   -0.9641    0.0000 N   0  0
    0.7144   -0.4125    0.0000 C   0  0
    0.7144    0.4125    0.0000 C   0  0
    0.0000    0.8250    0.0000 C   0  0
   -0.7144    0.4125    0.0000 C   0  0
   -0.7144   -0.4125    0.0000 C   0  0
    0.0000   -0.8250    0.0000 C   0  0
    0.1713   -1.6316    0.0000 N   0  0
   -0.3789   -2.2450    0.0000 C   0  0
   -0.1229   -3.0297    0.0000 C   0  0
   -0.6741   -3.6442    0.0000 C   0  0
   -0.4193   -4.4289    0.0000 C   0  0
   -0.9714   -5.0419    0.0000 C   0  0
   -1.7784   -4.8702    0.0000 N   0  0
   -2.0332   -4.0855    0.0000 C   0  0
   -1.4810   -3.4726    0.0000 C   0  0
   -1.4302    0.8237    0.0000 C   0  0
   -1.4313    1.4837    0.0000 O   0  0
   -2.1444    0.4100    0.0000 C   0  0
   -2.8604    0.8200    0.0000 C   0  0
   -3.5734    0.4050    0.0000 C   0  0
   -3.5706   -0.4200    0.0000 C   0  0
   -2.8547   -0.8300    0.0000 C   0  0
   -2.1416   -0.4150    0.0000 C   0  0
   -2.1465   -5.2789    0.0000 H   0  0
    1.9553   -2.4298    0.0000 H   0  0
    1.1311   -2.9074    0.0000 H   0  0
  1  2  1  0
  1 28  1  0
  1 29  1  0
  2  3  2  0
  3  4  1  0
  4  5  2  0
  5  6  1  0
  6  7  2  0
  7  8  1  0
  7 19  1  0
  8  9  2  0
  9  4  1  0
  9 10  1  0
 10  2  1  0
 10 11  1  0
 11 12  1  0
 12 13  1  0
 13 14  1  0
 14 15  1  0
 15 16  1  0
 16 17  1  0
 16 27  1  0
 17 18  1  0
 18 13  1  0
 19 20  2  0
 19 21  1  0
 21 22  2  0
 22 23  1  0
 23 24  2  0
 24 25  1  0
 25 26  2  0
 26 21  1  0
M  END
> <CMPD_CHEMBLID>
CHEMBL2059176

> <STANDARD_TYPE>
IC50

> <RELATION>
>

> <STANDARD_VALUE>
10000

> <STANDARD_UNITS>
nM

> <Molecular_Weight>
348.44146

$$$$

  SciTegic11272012012D

 28 31  0  0  0  0            999 V2000
    1.4053   -2.4305    0.0000 N   0  0
    0.9918   -1.7178    0.0000 C   0  0
    1.3273   -0.9641    0.0000 N   0  0
    0.7144   -0.4125    0.0000 C   0  0
    0.7144    0.4125    0.0000 C   0  0
    0.0000    0.8250    0.0000 C   0  0
   -0.7144    0.4125    0.0000 C   0  0
   -0.7144   -0.4125    0.0000 C   0  0
    0.0000   -0.8250    0.0000 C   0  0
    0.1713   -1.6316    0.0000 N   0  0
   -0.3789   -2.2450    0.0000 C   0  0
   -0.1229   -3.0297    0.0000 C   0  0
   -0.6729   -3.6447    0.0000 C   0  0
   -0.4154   -4.4284    0.0000 C   0  0
    0.3921   -4.5973    0.0000 N   0  0
    0.9422   -3.9824    0.0000 C   0  0
    0.6847   -3.1986    0.0000 C   0  0
   -1.4302    0.8237    0.0000 C   0  0
   -1.4313    1.4837    0.0000 O   0  0
   -2.1444    0.4100    0.0000 C   0  0
   -2.8604    0.8200    0.0000 C   0  0
   -3.5734    0.4050    0.0000 C   0  0
   -3.5706   -0.4200    0.0000 C   0  0
   -2.8546   -0.8300    0.0000 C   0  0
   -2.1416   -0.4150    0.0000 C   0  0
    0.5639   -5.1198    0.0000 H   0  0
    1.9553   -2.4298    0.0000 H   0  0
    1.1311   -2.9074    0.0000 H   0  0
  1  2  1  0
  1 27  1  0
  1 28  1  0
  2  3  2  0
  3  4  1  0
  4  5  2  0
  5  6  1  0
  6  7  2  0
  7  8  1  0
  7 18  1  0
  8  9  2  0
  9  4  1  0
  9 10  1  0
 10  2  1  0
 10 11  1  0
 11 12  1  0
 12 13  1  0
 13 14  1  0
 14 15  1  0
 15 16  1  0
 15 26  1  0
 16 17  1  0
 17 12  1  0
 18 19  2  0
 18 20  1  0
 20 21  2  0
 21 22  1  0
 22 23  2  0
 23 24  1  0
 24 25  2  0
 25 20  1  0
M  END
> <CMPD_CHEMBLID>
CHEMBL2030561

> <STANDARD_TYPE>
Ki

> <RELATION>
>

> <STANDARD_VALUE>
10000

> <STANDARD_UNITS>
nM

> <Molecular_Weight>
334.41488

$$$$

  SciTegic11272012012D

 21 23  0  0  0  0            999 V2000
    1.4053   -2.4306    0.0000 N   0  0
    0.9918   -1.7178    0.0000 C   0  0
    1.3273   -0.9641    0.0000 N   0  0
    0.7144   -0.4125    0.0000 C   0  0
    0.7144    0.4125    0.0000 C   0  0
    0.0000    0.8250    0.0000 C   0  0
   -0.7144    0.4125    0.0000 C   0  0
   -0.7144   -0.4125    0.0000 C   0  0
    0.0000   -0.8250    0.0000 C   0  0
    0.1713   -1.6316    0.0000 N   0  0
   -1.4302    0.8237    0.0000 C   0  0
   -1.4313    1.4837    0.0000 O   0  0
   -2.1444    0.4100    0.0000 C   0  0
   -2.8604    0.8200    0.0000 C   0  0
   -3.5735    0.4050    0.0000 C   0  0
   -3.5706   -0.4200    0.0000 C   0  0
   -2.8547   -0.8300    0.0000 C   0  0
   -2.1416   -0.4150    0.0000 C   0  0
   -0.1967   -2.0403    0.0000 H   0  0
    1.9553   -2.4298    0.0000 H   0  0
    1.1311   -2.9074    0.0000 H   0  0
  1  2  1  0
  1 20  1  0
  1 21  1  0
  2  3  2  0
  3  4  1  0
  4  5  2  0
  5  6  1  0
  6  7  2  0
  7  8  1  0
  7 11  1  0
  8  9  2  0
  9  4  1  0
  9 10  1  0
 10  2  1  0
 10 19  1  0
 11 12  2  0
 11 13  1  0
 13 14  2  0
 14 15  1  0
 15 16  2  0
 16 17  1  0
 17 18  2  0
 18 13  1  0
M  END
> <CMPD_CHEMBLID>
CHEMBL2030560

> <STANDARD_TYPE>
IC50

> <RELATION>
=

> <STANDARD_VALUE>
10000

> <STANDARD_UNITS>
nM

> <Molecular_Weight>
237.25664

$$$$

  SciTegic11272012012D

 34 38  0  0  0  0            999 V2000
    2.0013   -0.4930    0.0000 C   0  0
    1.4302   -0.8237    0.0000 O   0  0
    0.7145   -0.4125    0.0000 C   0  0
    0.7145    0.4125    0.0000 C   0  0
    0.0000    0.8250    0.0000 C   0  0
    0.0000    1.6500    0.0000 N   0  0
   -0.7145    2.0625    0.0000 C   0  0
   -1.4290    1.6500    0.0000 C   0  0
   -2.1439    2.0628    0.0000 C   0  0
   -2.7154    2.3928    0.0000 N   0  0
   -1.4290    0.8250    0.0000 C   0  0
   -2.1447    0.4137    0.0000 N   0  0
   -2.8590    0.8275    0.0000 C   0  0
   -3.2255    1.5181    0.0000 C   0  0
   -3.6405    0.8051    0.0000 C   0  0
   -4.3501    0.3835    0.0000 C   0  0
   -4.6400   -0.3768    0.0000 C   0  0
   -5.4544   -0.5085    0.0000 C   0  0
   -5.9758    0.1309    0.0000 C   0  0
   -5.6827    0.9021    0.0000 C   0  0
   -4.8683    1.0339    0.0000 C   0  0
   -0.7145    0.4125    0.0000 C   0  0
   -0.7145   -0.4125    0.0000 C   0  0
    0.0000   -0.8250    0.0000 C   0  0
   -0.0017   -1.6505    0.0000 O   0  0
   -0.7172   -2.0622    0.0000 C   0  0
   -0.7189   -2.8877    0.0000 C   0  0
   -1.4343   -3.2994    0.0000 N   0  0
   -1.4372   -4.1244    0.0000 C   0  0
   -2.1531   -4.5344    0.0000 C   0  0
   -2.8661   -4.1195    0.0000 O   0  0
   -2.8633   -3.2944    0.0000 C   0  0
   -2.1474   -2.8844    0.0000 C   0  0
   -2.1456   -0.1363    0.0000 H   0  0
  1  2  1  0
  2  3  1  0
  3  4  2  0
  4  5  1  0
  5  6  2  0
  6  7  1  0
  7  8  2  0
  8  9  1  0
  8 11  1  0
  9 10  3  0
 11 12  1  0
 11 22  2  0
 12 13  1  0
 12 34  1  0
 13 14  1  0
 14 15  1  0
 15 13  1  0
 15 16  1  0
 16 17  2  0
 17 18  1  0
 18 19  2  0
 19 20  1  0
 20 21  2  0
 21 16  1  0
 22  5  1  0
 22 23  1  0
 23 24  2  0
 24  3  1  0
 24 25  1  0
 25 26  1  0
 26 27  1  0
 27 28  1  0
 28 29  1  0
 29 30  1  0
 30 31  1  0
 31 32  1  0
 32 33  1  0
 33 28  1  0
M  END
> <CMPD_CHEMBLID>
CHEMBL401054

> <STANDARD_TYPE>
Ki

> <RELATION>
>

> <STANDARD_VALUE>
10000

> <STANDARD_UNITS>
nM

> <Molecular_Weight>
444.52552

$$$$

  SciTegic11272012012D

 42 46  0  0  0  0            999 V2000
    2.8582    3.9566    0.0000 C   0  0
    2.8588    3.2966    0.0000 N   0  0
    3.5736    2.8848    0.0000 C   0  0
    3.5744    2.0598    0.0000 C   0  0
    2.8603    1.6466    0.0000 N   0  0
    2.1454    2.0585    0.0000 C   0  0
    2.1447    2.8835    0.0000 C   0  0
    2.8598    0.8211    0.0000 C   0  0
    3.5740    0.4082    0.0000 C   0  0
    3.5735   -0.4168    0.0000 C   0  0
    2.8587   -0.8288    0.0000 C   0  0
    2.8599   -1.6543    0.0000 O   0  0
    3.5751   -2.0665    0.0000 C   0  0
    3.5760   -2.7265    0.0000 F   0  0
    4.1463   -1.7358    0.0000 F   0  0
    4.1471   -2.3957    0.0000 F   0  0
    2.1444   -0.4159    0.0000 C   0  0
    1.4285   -0.8267    0.0000 N   0  0
    0.7144   -0.4125    0.0000 C   0  0
    0.7144    0.4125    0.0000 N   0  0
    0.0000    0.8250    0.0000 C   0  0
   -0.7144    0.4125    0.0000 C   0  0
   -1.4290    0.8250    0.0000 C   0  0
   -2.1434    0.4125    0.0000 C   0  0
   -2.1434   -0.4125    0.0000 C   0  0
   -2.7563   -0.9641    0.0000 C   0  0
   -2.4207   -1.7178    0.0000 N   0  0
   -1.6002   -1.6316    0.0000 N   0  0
   -1.0500   -2.2450    0.0000 C   0  0
   -1.3060   -3.0297    0.0000 C   0  0
   -0.7548   -3.6442    0.0000 O   0  0
   -1.4290   -0.8250    0.0000 C   0  0
   -0.7144   -0.4125    0.0000 C   0  0
    0.0000   -0.8250    0.0000 N   0  0
   -3.5626   -0.7944    0.0000 C   0  0
   -3.7676   -0.1670    0.0000 O   0  0
   -4.1142   -1.4084    0.0000 N   0  0
    2.1451    0.4091    0.0000 C   0  0
   -4.6524   -1.2951    0.0000 H   0  0
   -3.9434   -1.9313    0.0000 H   0  0
   -0.9254   -4.1671    0.0000 H   0  0
    1.4272   -1.3767    0.0000 H   0  0
  1  2  1  0
  2  3  1  0
  3  4  1  0
  4  5  1  0
  5  6  1  0
  5  8  1  0
  6  7  1  0
  7  2  1  0
  8  9  2  0
  9 10  1  0
 10 11  2  0
 11 12  1  0
 11 17  1  0
 12 13  1  0
 13 14  1  0
 13 15  1  0
 13 16  1  0
 17 18  1  0
 17 38  2  0
 18 19  1  0
 18 42  1  0
 19 20  2  0
 20 21  1  0
 21 22  2  0
 22 23  1  0
 23 24  1  0
 24 25  1  0
 25 26  1  0
 26 27  2  0
 26 35  1  0
 27 28  1  0
 28 29  1  0
 28 32  1  0
 29 30  1  0
 30 31  1  0
 31 41  1  0
 32 25  2  0
 32 33  1  0
 33 22  1  0
 33 34  2  0
 34 19  1  0
 35 36  2  0
 35 37  1  0
 37 39  1  0
 37 40  1  0
 38  8  1  0
M  END
> <CMPD_CHEMBLID>
CHEMBL1738758

> <STANDARD_TYPE>
IC50

> <RELATION>
>

> <STANDARD_VALUE>
10000

> <STANDARD_UNITS>
nM

> <Molecular_Weight>
532.51819

$$$$

  SciTegic11272012012D

 33 37  0  0  0  0            999 V2000
   -3.4428   -4.1722    0.0000 C   0  0
   -2.9646   -3.7174    0.0000 N   0  0
   -3.1195   -3.0758    0.0000 C   0  0
   -2.1727   -3.9505    0.0000 C   0  0
   -2.0178   -4.5921    0.0000 O   0  0
   -1.5745   -3.3817    0.0000 N   0  0
   -0.7828   -3.6135    0.0000 C   0  0
   -0.1861   -3.0438    0.0000 C   0  0
   -0.3810   -2.2449    0.0000 C   0  0
   -1.1730   -2.0103    0.0000 C   0  0
   -1.7696   -2.5800    0.0000 C   0  0
    0.1713   -1.6316    0.0000 C   0  0
    0.9918   -1.7178    0.0000 N   0  0
    1.3273   -0.9641    0.0000 C   0  0
    2.1347   -0.7924    0.0000 C   0  0
    2.3964   -0.0169    0.0000 C   0  0
    3.2206   -0.0387    0.0000 C   0  0
    3.7886    0.5597    0.0000 C   0  0
    4.5908    0.3670    0.0000 C   0  0
    4.8250   -0.4241    0.0000 C   0  0
    4.2570   -1.0224    0.0000 C   0  0
    3.4548   -0.8298    0.0000 C   0  0
    2.7753   -1.2968    0.0000 N   0  0
    0.7144   -0.4125    0.0000 C   0  0
    0.7144    0.4125    0.0000 C   0  0
    1.4285    0.8267    0.0000 N   0  0
    0.0000    0.8250    0.0000 N   0  0
   -0.7144    0.4125    0.0000 C   0  0
   -0.7144   -0.4125    0.0000 C   0  0
    0.0000   -0.8250    0.0000 N   0  0
    1.4277    1.3767    0.0000 H   0  0
    1.9053    0.5525    0.0000 H   0  0
    2.7575   -1.8466    0.0000 H   0  0
  1  2  1  0
  2  3  1  0
  2  4  1  0
  4  5  2  0
  4  6  1  0
  6  7  1  0
  7  8  1  0
  8  9  1  0
  9 10  1  0
  9 12  1  0
 10 11  1  0
 11  6  1  0
 12 13  2  0
 13 14  1  0
 14 15  1  0
 14 24  2  0
 15 16  2  0
 16 17  1  0
 17 18  2  0
 18 19  1  0
 19 20  2  0
 20 21  1  0
 21 22  2  0
 22 17  1  0
 22 23  1  0
 23 15  1  0
 23 33  1  0
 24 25  1  0
 25 26  1  0
 25 27  2  0
 26 31  1  0
 26 32  1  0
 27 28  1  0
 28 29  2  0
 29 30  1  0
 30 12  1  0
 30 24  1  0
M  END
> <CMPD_CHEMBLID>
CHEMBL1762114

> <STANDARD_TYPE>
IC50

> <RELATION>
>

> <STANDARD_VALUE>
10000

> <STANDARD_UNITS>
nM

> <Molecular_Weight>
403.4802

$$$$

  SciTegic11272012012D

 25 28  0  0  0  0            999 V2000
    1.4276   -1.4867    0.0000 C   0  0
    1.4285   -0.8267    0.0000 O   0  0
    0.7145   -0.4125    0.0000 C   0  0
    0.7145    0.4125    0.0000 C   0  0
    0.0000    0.8250    0.0000 C   0  0
   -0.7145    0.4125    0.0000 C   0  0
   -1.4290    0.8250    0.0000 N   0  0
   -2.1434    0.4125    0.0000 C   0  0
   -2.1434   -0.4125    0.0000 C   0  0
   -2.8583   -0.8252    0.0000 C   0  0
   -3.4299   -1.1552    0.0000 N   0  0
   -1.4290   -0.8250    0.0000 C   0  0
   -1.4306   -1.6504    0.0000 N   0  0
   -2.1461   -2.0622    0.0000 C   0  0
   -2.9274   -2.0343    0.0000 C   0  0
   -2.5175   -2.7502    0.0000 C   0  0
   -2.5071   -3.5756    0.0000 C   0  0
   -1.9937   -4.2067    0.0000 C   0  0
   -2.2868   -4.9779    0.0000 C   0  0
   -3.1012   -5.1097    0.0000 C   0  0
   -3.6225   -4.4703    0.0000 C   0  0
   -3.3295   -3.6991    0.0000 C   0  0
   -0.7145   -0.4125    0.0000 C   0  0
    0.0000   -0.8250    0.0000 C   0  0
   -0.9548   -1.9263    0.0000 H   0  0
  1  2  1  0
  2  3  1  0
  3  4  2  0
  4  5  1  0
  5  6  2  0
  6  7  1  0
  7  8  2  0
  8  9  1  0
  9 10  1  0
  9 12  2  0
 10 11  3  0
 12 13  1  0
 12 23  1  0
 13 14  1  0
 13 25  1  0
 14 15  1  0
 15 16  1  0
 16 14  1  0
 16 17  1  0
 17 18  2  0
 18 19  1  0
 19 20  2  0
 20 21  1  0
 21 22  2  0
 22 17  1  0
 23  6  1  0
 23 24  2  0
 24  3  1  0
M  END
> <CMPD_CHEMBLID>
CHEMBL401644

> <STANDARD_TYPE>
Ki

> <RELATION>
>

> <STANDARD_VALUE>
10000

> <STANDARD_UNITS>
nM

> <Molecular_Weight>
315.36848

$$$$

  SciTegic11272012012D

 19 22  0  0  0  0            999 V2000
    1.3273   -0.9642    0.0000 O   0  0
    0.7145   -0.4125    0.0000 C   0  0
    0.7145    0.4125    0.0000 C   0  0
    0.0000    0.8250    0.0000 C   0  0
   -0.7145    0.4125    0.0000 C   0  0
   -0.7145   -0.4125    0.0000 C   0  0
    0.0000   -0.8250    0.0000 C   0  0
    0.1713   -1.6316    0.0000 C   0  0
   -0.1641   -2.3841    0.0000 N   0  0
    0.4490   -2.9362    0.0000 N   0  0
    1.1634   -2.5237    0.0000 C   0  0
    1.9176   -2.8592    0.0000 C   0  0
    2.0646   -3.6683    0.0000 C   0  0
    2.8415   -3.9460    0.0000 C   0  0
    3.4704   -3.4120    0.0000 C   0  0
    3.3224   -2.6003    0.0000 C   0  0
    2.5456   -2.3227    0.0000 C   0  0
    0.9918   -1.7179    0.0000 C   0  0
   -0.7021   -2.4984    0.0000 H   0  0
  1  2  1  0
  2  3  2  0
  3  4  1  0
  4  5  2  0
  5  6  1  0
  6  7  2  0
  7  2  1  0
  7  8  1  0
  8  9  1  0
  9 10  1  0
  9 19  1  0
 10 11  2  0
 11 12  1  0
 11 18  1  0
 12 13  2  0
 13 14  1  0
 14 15  2  0
 15 16  1  0
 16 17  2  0
 17 12  1  0
 18  1  1  0
 18  8  2  0
M  END
> <CMPD_CHEMBLID>
CHEMBL406375

> <STANDARD_TYPE>
IC50

> <RELATION>
>=

> <STANDARD_VALUE>
10000

> <STANDARD_UNITS>
nM

> <Molecular_Weight>
234.2527

$$$$

  SciTegic11272012012D

 32 36  0  0  0  0            999 V2000
    1.2861   -0.7425    0.0000 C   0  0
    0.7145   -0.4125    0.0000 N   0  0
    0.7145    0.4125    0.0000 C   0  0
    1.2861    0.7425    0.0000 O   0  0
    0.0000    0.8250    0.0000 C   0  0
   -0.7145    0.4125    0.0000 C   0  0
   -0.7145   -0.4125    0.0000 C   0  0
   -1.4290   -0.8250    0.0000 C   0  0
   -1.4290   -1.6500    0.0000 N   0  0
   -0.7145   -2.0625    0.0000 C   0  0
   -0.7128   -2.8880    0.0000 N   0  0
    0.0027   -3.2997    0.0000 C   0  0
    0.0056   -4.1247    0.0000 C   0  0
    0.7215   -4.5348    0.0000 C   0  0
    1.4345   -4.1198    0.0000 C   0  0
    2.2196   -4.3720    0.0000 N   0  0
    2.7022   -3.7029    0.0000 C   0  0
    2.2150   -3.0371    0.0000 C   0  0
    1.4317   -3.2948    0.0000 C   0  0
    0.7158   -2.8847    0.0000 C   0  0
    0.0000   -1.6500    0.0000 N   0  0
    0.0000   -0.8250    0.0000 C   0  0
   -0.0017    1.6505    0.0000 S   0  0
   -0.7172    2.0622    0.0000 C   0  0
   -0.7201    2.8872    0.0000 C   0  0
   -1.4360    3.2972    0.0000 C   0  0
   -2.1490    2.8823    0.0000 C   0  0
   -2.7218    3.2103    0.0000 F   0  0
   -2.1462    2.0573    0.0000 C   0  0
   -1.4303    1.6472    0.0000 C   0  0
    2.3913   -4.8945    0.0000 H   0  0
   -1.1886   -3.1639    0.0000 H   0  0
  1  2  1  0
  2  3  1  0
  3  4  2  0
  3  5  1  0
  5  6  2  0
  5 23  1  0
  6  7  1  0
  7  8  2  0
  8  9  1  0
  9 10  2  0
 10 11  1  0
 10 21  1  0
 11 12  1  0
 11 32  1  0
 12 13  2  0
 13 14  1  0
 14 15  2  0
 15 16  1  0
 16 17  1  0
 16 31  1  0
 17 18  2  0
 18 19  1  0
 19 15  1  0
 19 20  2  0
 20 12  1  0
 21 22  2  0
 22  2  1  0
 22  7  1  0
 23 24  1  0
 24 25  2  0
 25 26  1  0
 26 27  2  0
 27 28  1  0
 27 29  1  0
 29 30  2  0
 30 24  1  0
M  END
> <CMPD_CHEMBLID>
CHEMBL3702566

> <STANDARD_TYPE>
IC50

> <RELATION>
>

> <STANDARD_VALUE>
10000

> <STANDARD_UNITS>
nM

> <Molecular_Weight>
417.45874

$$$$

  SciTegic11272012012D

 27 31  0  0  0  0            999 V2000
    0.7144   -0.4125    0.0000 C   0  0
    0.7144    0.4125    0.0000 C   0  0
    0.0000    0.8250    0.0000 O   0  0
   -0.7144    0.4125    0.0000 C   0  0
   -1.4289    0.8250    0.0000 C   0  0
   -2.1434    0.4125    0.0000 C   0  0
   -2.8579    0.8250    0.0000 C   0  0
   -2.8596    1.6504    0.0000 N   0  0
   -3.5750    2.0622    0.0000 C   0  0
   -3.5779    2.8872    0.0000 C   0  0
   -4.2938    3.2972    0.0000 C   0  0
   -5.0069    2.8822    0.0000 C   0  0
   -5.0040    2.0572    0.0000 C   0  0
   -4.2881    1.6472    0.0000 C   0  0
   -5.7174    1.6420    0.0000 C   0  0
   -6.4624    1.9798    0.0000 O   0  0
   -7.0113    1.3639    0.0000 C   0  0
   -6.5952    0.6516    0.0000 C   0  0
   -5.7891    0.8271    0.0000 C   0  0
   -3.5723    0.4125    0.0000 N   0  0
   -3.5723   -0.4125    0.0000 C   0  0
   -2.8578   -0.8250    0.0000 N   0  0
   -2.1434   -0.4125    0.0000 C   0  0
   -1.4289   -0.8250    0.0000 C   0  0
   -0.7144   -0.4125    0.0000 C   0  0
    0.0000   -0.8250    0.0000 O   0  0
   -2.3837    1.9263    0.0000 H   0  0
  1  2  1  0
  2  3  1  0
  3  4  1  0
  4  5  2  0
  5  6  1  0
  6  7  2  0
  7  8  1  0
  7 20  1  0
  8  9  1  0
  8 27  1  0
  9 10  2  0
 10 11  1  0
 11 12  2  0
 12 13  1  0
 13 14  2  0
 13 15  1  0
 14  9  1  0
 15 16  1  0
 16 17  1  0
 17 18  2  0
 18 19  1  0
 19 15  2  0
 20 21  2  0
 21 22  1  0
 22 23  2  0
 23  6  1  0
 23 24  1  0
 24 25  2  0
 25  4  1  0
 25 26  1  0
 26  1  1  0
M  END
> <CMPD_CHEMBLID>
CHEMBL3297954

> <STANDARD_TYPE>
IC50

> <RELATION>
>

> <STANDARD_VALUE>
10000

> <STANDARD_UNITS>
nM

> <Molecular_Weight>
345.3514

$$$$

  SciTegic11272012012D

 38 42  0  0  0  0            999 V2000
    7.0010    0.7569    0.0000 C   0  0
    6.4305    0.4249    0.0000 N   0  0
    6.4334   -0.4001    0.0000 C   0  0
    5.7204   -0.8150    0.0000 C   0  0
    5.0044   -0.4050    0.0000 N   0  0
    4.2902   -0.8188    0.0000 C   0  0
    3.5744   -0.4075    0.0000 C   0  0
    2.8602   -0.8213    0.0000 N   0  0
    2.1444   -0.4100    0.0000 C   0  0
    2.1433    0.2500    0.0000 O   0  0
    1.4302   -0.8237    0.0000 C   0  0
    0.7144   -0.4125    0.0000 C   0  0
    0.7144    0.4125    0.0000 C   0  0
    0.0000    0.8250    0.0000 N   0  0
   -0.7144    0.4125    0.0000 C   0  0
   -1.2861    0.7425    0.0000 O   0  0
   -0.7144   -0.4125    0.0000 C   0  0
   -1.3273   -0.9641    0.0000 C   0  0
   -0.9918   -1.7178    0.0000 C   0  0
   -0.1713   -1.6316    0.0000 C   0  0
    0.0000   -0.8250    0.0000 N   0  0
   -1.4045   -2.4326    0.0000 C   0  0
   -2.2244   -2.4940    0.0000 C   0  0
   -2.5820   -3.2375    0.0000 C   0  0
   -2.1169   -3.9189    0.0000 C   0  0
   -1.2943   -3.8568    0.0000 C   0  0
   -0.9222   -4.4020    0.0000 Cl  0  0
   -0.9367   -3.1133    0.0000 C   0  0
    3.5730    0.4179    0.0000 C   0  0
    2.8583    0.8302    0.0000 C   0  0
    2.8581    1.6552    0.0000 C   0  0
    3.5724    2.0679    0.0000 C   0  0
    4.2870    1.6557    0.0000 C   0  0
    4.2873    0.8307    0.0000 C   0  0
    5.0016    0.4200    0.0000 C   0  0
    5.7147    0.8350    0.0000 C   0  0
    0.0000    1.3750    0.0000 H   0  0
    2.8612   -1.3713    0.0000 H   0  0
  1  2  1  0
  2  3  1  0
  3  4  1  0
  4  5  1  0
  5  6  1  0
  5 35  1  0
  6  7  1  0
  7  8  1  0
  7 29  1  0
  8  9  1  0
  8 38  1  0
  9 10  2  0
  9 11  1  0
 11 12  1  0
 12 13  1  0
 13 14  1  0
 14 15  1  0
 14 37  1  0
 15 16  2  0
 15 17  1  0
 17 18  2  0
 18 19  1  0
 19 20  2  0
 19 22  1  0
 20 21  1  0
 21 12  1  0
 21 17  1  0
 22 23  2  0
 23 24  1  0
 24 25  2  0
 25 26  1  0
 26 27  1  0
 26 28  2  0
 28 22  1  0
 29 30  1  0
 30 31  1  0
 31 32  1  0
 32 33  1  0
 33 34  1  0
 34 29  1  0
 35 36  1  0
 36  2  1  0
M  END
> <CMPD_CHEMBLID>
CHEMBL3297762

> <STANDARD_TYPE>
IC50

> <RELATION>
>

> <STANDARD_VALUE>
10000

> <STANDARD_UNITS>
nM

> <Molecular_Weight>
512.08662

$$$$

  SciTegic11272012012D

 39 42  0  0  0  0            999 V2000
    4.7229   -2.8378    0.0000 C   0  0
    4.3339   -2.3047    0.0000 N   0  0
    4.6013   -1.7012    0.0000 C   0  0
    3.5131   -2.3921    0.0000 C   0  0
    3.0265   -1.7253    0.0000 C   0  0
    2.2057   -1.8128    0.0000 C   0  0
    1.7191   -1.1459    0.0000 N   0  0
    0.8983   -1.2335    0.0000 C   0  0
    0.6309   -1.8369    0.0000 O   0  0
    0.4125   -0.5678    0.0000 C   0  0
    0.6674    0.2169    0.0000 C   0  0
    0.0000    0.7018    0.0000 S   0  0
   -0.6674    0.2169    0.0000 C   0  0
   -1.4914    0.2172    0.0000 N   0  0
   -1.7463   -0.5674    0.0000 C   0  0
   -1.0788   -1.0523    0.0000 C   0  0
   -0.4125   -0.5678    0.0000 N   0  0
   -2.5313   -0.8225    0.0000 C   0  0
   -3.1818   -0.3194    0.0000 C   0  0
   -3.9450   -0.6327    0.0000 C   0  0
   -4.0553   -1.4503    0.0000 C   0  0
   -4.8183   -1.7653    0.0000 N   0  0
   -4.9275   -2.5835    0.0000 C   0  0
   -4.4045   -2.9861    0.0000 O   0  0
   -5.6905   -2.8986    0.0000 N   0  0
   -5.7998   -3.7168    0.0000 C   0  0
   -6.5231   -4.0987    0.0000 C   0  0
   -6.3726   -4.9098    0.0000 C   0  0
   -5.5546   -5.0173    0.0000 O   0  0
   -5.1996   -4.2726    0.0000 N   0  0
   -6.9397   -5.5078    0.0000 C   0  0
   -7.5816   -5.3542    0.0000 C   0  0
   -6.7518   -6.1405    0.0000 C   0  0
   -7.3936   -5.9868    0.0000 C   0  0
   -3.4024   -1.9546    0.0000 C   0  0
   -2.6392   -1.6414    0.0000 C   0  0
   -6.1264   -2.5631    0.0000 H   0  0
   -5.2542   -1.4299    0.0000 H   0  0
    1.9419   -0.6431    0.0000 H   0  0
  1  2  1  0
  2  3  1  0
  2  4  1  0
  4  5  1  0
  5  6  1  0
  6  7  1  0
  7  8  1  0
  7 39  1  0
  8  9  2  0
  8 10  1  0
 10 11  2  0
 11 12  1  0
 12 13  1  0
 13 14  2  0
 14 15  1  0
 15 16  2  0
 15 18  1  0
 16 17  1  0
 17 10  1  0
 17 13  1  0
 18 19  2  0
 19 20  1  0
 20 21  2  0
 21 22  1  0
 21 35  1  0
 22 23  1  0
 22 38  1  0
 23 24  2  0
 23 25  1  0
 25 26  1  0
 25 37  1  0
 26 27  1  0
 27 28  2  0
 28 29  1  0
 28 31  1  0
 29 30  1  0
 30 26  2  0
 31 32  1  0
 31 33  1  0
 31 34  1  0
 35 36  2  0
 36 18  1  0
M  END
> <CMPD_CHEMBLID>
CHEMBL3623375

> <STANDARD_TYPE>
IC50

> <RELATION>
>

> <STANDARD_VALUE>
10000

> <STANDARD_UNITS>
nM

> <Molecular_Weight>
509.62374

$$$$

  SciTegic11272012012D

 37 43  0  0  0  0            999 V2000
    1.8786    0.9146    0.0000 N   0  0
    2.4288    0.2993    0.0000 C   0  0
    3.2360    0.4696    0.0000 N   0  0
    3.7872   -0.1443    0.0000 C   0  0
    3.5311   -0.9285    0.0000 C   0  0
    2.7239   -1.0989    0.0000 N   0  0
    2.3107   -1.8125    0.0000 C   0  0
    1.5040   -1.6398    0.0000 N   0  0
    1.4293   -0.8252    0.0000 C   0  0
    0.7144   -0.4125    0.0000 C   0  0
    0.7144    0.4125    0.0000 C   0  0
    0.0000    0.8250    0.0000 C   0  0
   -0.7144    0.4125    0.0000 C   0  0
   -1.4290    0.8250    0.0000 C   0  0
   -2.1434    0.4125    0.0000 C   0  0
   -2.1434   -0.4125    0.0000 C   0  0
   -1.4290   -0.8250    0.0000 N   0  0
   -0.7144   -0.4125    0.0000 C   0  0
    0.0000   -0.8250    0.0000 C   0  0
   -2.8582   -0.8252    0.0000 C   0  0
   -3.5734   -0.4139    0.0000 C   0  0
   -4.2872   -0.8275    0.0000 C   0  0
   -4.2859   -1.6525    0.0000 C   0  0
   -3.5708   -2.0639    0.0000 C   0  0
   -2.8570   -1.6503    0.0000 C   0  0
    2.1727   -0.4850    0.0000 C   0  0
    2.6454   -2.5670    0.0000 C   0  0
    3.3767   -2.8981    0.0000 C   0  0
    3.0175   -3.6408    0.0000 C   0  0
    3.2861   -4.4178    0.0000 C   0  0
    2.7457   -5.0418    0.0000 N   0  0
    2.8217   -5.8433    0.0000 C   0  0
    1.9987   -5.9007    0.0000 C   0  0
    1.9413   -5.0777    0.0000 C   0  0
    2.2747   -3.2816    0.0000 C   0  0
    2.0501    1.4372    0.0000 H   0  0
    1.3402    0.8020    0.0000 H   0  0
  1  2  1  0
  1 36  1  0
  1 37  1  0
  2  3  2  0
  3  4  1  0
  4  5  2  0
  5  6  1  0
  6  7  1  0
  7  8  2  0
  7 27  1  0
  8  9  1  0
  9 10  1  0
  9 26  2  0
 10 11  2  0
 11 12  1  0
 12 13  2  0
 13 14  1  0
 14 15  2  0
 15 16  1  0
 16 17  2  0
 16 20  1  0
 17 18  1  0
 18 13  1  0
 18 19  2  0
 19 10  1  0
 20 21  2  0
 21 22  1  0
 22 23  2  0
 23 24  1  0
 24 25  2  0
 25 20  1  0
 26  2  1  0
 26  6  1  0
 27 28  1  0
 28 29  1  0
 29 30  1  0
 29 35  1  0
 30 31  1  0
 31 32  1  0
 32 33  1  0
 33 34  1  0
 34 31  1  0
 35 27  1  0
M  END
> <CMPD_CHEMBLID>
CHEMBL410659

> <STANDARD_TYPE>
IC50

> <RELATION>
>

> <STANDARD_VALUE>
10000

> <STANDARD_UNITS>
nM

> <Molecular_Weight>
460.57282

$$$$

  SciTegic11272012012D

 36 39  0  0  0  0            999 V2000
    2.7345   -7.1270    0.0000 C   0  0
    2.5272   -6.5004    0.0000 C   0  0
    2.9663   -6.0077    0.0000 C   0  0
    3.1734   -6.6343    0.0000 C   0  0
    1.7189   -6.3326    0.0000 O   0  0
    1.4597   -5.5489    0.0000 C   0  0
    1.8988   -5.0562    0.0000 O   0  0
    0.6514   -5.3811    0.0000 N   0  0
    0.3922   -4.5974    0.0000 C   0  0
   -0.4154   -4.4285    0.0000 C   0  0
   -0.6729   -3.6447    0.0000 C   0  0
   -0.1229   -3.0298    0.0000 C   0  0
   -0.3790   -2.2450    0.0000 N   0  0
    0.1713   -1.6316    0.0000 C   0  0
    0.9918   -1.7178    0.0000 N   0  0
    1.3273   -0.9642    0.0000 N   0  0
    0.7145   -0.4125    0.0000 C   0  0
    0.7145    0.4125    0.0000 N   0  0
    0.0000    0.8250    0.0000 C   0  0
   -0.7145    0.4125    0.0000 N   0  0
   -0.7145   -0.4125    0.0000 C   0  0
   -1.4302   -0.8238    0.0000 N   0  0
   -2.1445   -0.4100    0.0000 C   0  0
   -2.8604   -0.8200    0.0000 C   0  0
   -3.5735   -0.4051    0.0000 C   0  0
   -3.5706    0.4199    0.0000 C   0  0
   -2.8547    0.8300    0.0000 C   0  0
   -2.8524    1.4900    0.0000 Cl  0  0
   -2.1417    0.4150    0.0000 C   0  0
    0.0000   -0.8250    0.0000 C   0  0
    0.6847   -3.1987    0.0000 C   0  0
    0.9422   -3.9825    0.0000 C   0  0
   -1.4312   -1.3738    0.0000 H   0  0
    1.2668   -2.1941    0.0000 H   0  0
   -0.9171   -2.1315    0.0000 H   0  0
    0.2855   -5.7917    0.0000 H   0  0
  1  2  1  0
  2  3  1  0
  2  4  1  0
  2  5  1  0
  5  6  1  0
  6  7  2  0
  6  8  1  0
  8  9  1  0
  8 36  1  0
  9 10  2  0
 10 11  1  0
 11 12  2  0
 12 13  1  0
 12 31  1  0
 13 14  1  0
 13 35  1  0
 14 15  1  0
 15 16  1  0
 15 34  1  0
 16 17  2  0
 17 18  1  0
 18 19  2  0
 19 20  1  0
 20 21  2  0
 21 22  1  0
 21 30  1  0
 22 23  1  0
 22 33  1  0
 23 24  2  0
 24 25  1  0
 25 26  2  0
 26 27  1  0
 27 28  1  0
 27 29  2  0
 29 23  1  0
 30 14  2  0
 30 17  1  0
 31 32  2  0
 32  9  1  0
M  END
> <CMPD_CHEMBLID>
CHEMBL120703

> <STANDARD_TYPE>
IC50

> <RELATION>
>

> <STANDARD_VALUE>
10000

> <STANDARD_UNITS>
nM

> <Molecular_Weight>
451.90878

$$$$

  SciTegic11272012012D

 35 39  0  0  0  0            999 V2000
    1.4094    0.0119    0.0000 O   0  0
    0.7144   -0.4125    0.0000 C   0  0
    0.7144    0.4125    0.0000 C   0  0
    0.0000    0.8250    0.0000 C   0  0
   -0.7144    0.4125    0.0000 N   0  0
   -0.7144   -0.4125    0.0000 C   0  0
    0.0000   -0.8250    0.0000 C   0  0
    0.6945   -1.2267    0.0000 C   0  0
    1.3502   -1.7158    0.0000 O   0  0
    1.0761   -2.4939    0.0000 C   0  0
    1.5447   -3.1733    0.0000 C   0  0
    1.2484   -3.9404    0.0000 C   0  0
    1.7666   -4.5823    0.0000 C   0  0
    2.5816   -4.4545    0.0000 N   0  0
    2.8785   -3.6848    0.0000 C   0  0
    3.6937   -3.5553    0.0000 N   0  0
    3.9896   -2.7846    0.0000 C   0  0
    4.8042   -2.6540    0.0000 C   0  0
    5.0984   -1.8832    0.0000 C   0  0
    4.5780   -1.2431    0.0000 C   0  0
    3.7634   -1.3737    0.0000 C   0  0
    3.4692   -2.1444    0.0000 C   0  0
    2.3603   -3.0428    0.0000 C   0  0
    0.2513   -2.4737    0.0000 C   0  0
    0.0157   -1.6831    0.0000 N   0  0
   -0.2500   -3.1294    0.0000 C   0  0
    0.0084   -3.9100    0.0000 C   0  0
   -0.5407   -4.5258    0.0000 C   0  0
   -1.3485   -4.3582    0.0000 C   0  0
   -1.7877   -4.8508    0.0000 F   0  0
   -1.6073   -3.5748    0.0000 C   0  0
   -1.0583   -2.9591    0.0000 C   0  0
    4.0400   -3.9826    0.0000 H   0  0
   -1.1908    0.6875    0.0000 H   0  0
    1.4096    0.5619    0.0000 H   0  0
  1  2  1  0
  1 35  1  0
  2  3  1  0
  2  8  1  0
  3  4  1  0
  4  5  1  0
  5  6  1  0
  5 34  1  0
  6  7  1  0
  7  2  1  0
  8  9  1  0
  9 10  1  0
 10 11  1  0
 10 24  2  0
 11 12  2  0
 12 13  1  0
 13 14  2  0
 14 15  1  0
 15 16  1  0
 15 23  2  0
 16 17  1  0
 16 33  1  0
 17 18  1  0
 18 19  1  0
 19 20  1  0
 20 21  1  0
 21 22  1  0
 22 17  1  0
 23 11  1  0
 24 25  1  0
 24 26  1  0
 25  8  2  0
 26 27  2  0
 27 28  1  0
 28 29  2  0
 29 30  1  0
 29 31  1  0
 31 32  2  0
 32 26  1  0
M  END
> <CMPD_CHEMBLID>
CHEMBL121405

> <STANDARD_TYPE>
IC50

> <RELATION>
>

> <STANDARD_VALUE>
10000

> <STANDARD_UNITS>
nM

> <Molecular_Weight>
436.52176

$$$$

  SciTegic11272012012D

 24 27  0  0  0  0            999 V2000
    1.4302   -0.8237    0.0000 N   0  0
    0.7145   -0.4125    0.0000 C   0  0
    0.7145    0.4125    0.0000 N   0  0
    0.0000    0.8250    0.0000 C   0  0
   -0.7145    0.4125    0.0000 N   0  0
   -0.7145   -0.4125    0.0000 C   0  0
    0.0000   -0.8250    0.0000 C   0  0
   -0.1713   -1.6316    0.0000 C   0  0
   -0.9918   -1.7178    0.0000 N   0  0
   -1.3273   -0.9642    0.0000 N   0  0
   -2.1348   -0.7925    0.0000 C   0  0
   -2.7291   -1.3607    0.0000 C   0  0
   -3.5208   -1.1288    0.0000 C   0  0
   -3.7159   -0.3272    0.0000 C   0  0
   -3.1193    0.2426    0.0000 C   0  0
   -2.3275    0.0107    0.0000 C   0  0
    0.3811   -2.2450    0.0000 C   0  0
    1.1959   -2.1345    0.0000 C   0  0
    1.7002   -2.7874    0.0000 C   0  0
    1.3870   -3.5506    0.0000 C   0  0
    0.5694   -3.6610    0.0000 C   0  0
    0.0651   -3.0081    0.0000 C   0  0
    1.9062   -0.5481    0.0000 H   0  0
    1.4312   -1.3738    0.0000 H   0  0
  1  2  1  0
  1 23  1  0
  1 24  1  0
  2  3  2  0
  3  4  1  0
  4  5  2  0
  5  6  1  0
  6  7  2  0
  7  2  1  0
  7  8  1  0
  8  9  2  0
  8 17  1  0
  9 10  1  0
 10  6  1  0
 10 11  1  0
 11 12  2  0
 12 13  1  0
 13 14  2  0
 14 15  1  0
 15 16  2  0
 16 11  1  0
 17 18  2  0
 18 19  1  0
 19 20  2  0
 20 21  1  0
 21 22  2  0
 22 17  1  0
M  END
> <CMPD_CHEMBLID>
CHEMBL122243

> <STANDARD_TYPE>
IC50

> <RELATION>
>

> <STANDARD_VALUE>
10000

> <STANDARD_UNITS>
nM

> <Molecular_Weight>
287.31862

$$$$

  SciTegic11272012012D

 36 41  0  0  0  0            999 V2000
    3.4281   -1.9834    0.0000 C   0  0
    2.8570   -1.6525    0.0000 N   0  0
    2.8583   -0.8275    0.0000 C   0  0
    2.1445   -0.4139    0.0000 C   0  0
    1.4293   -0.8252    0.0000 N   0  0
    1.4281   -1.6502    0.0000 C   0  0
    2.1419   -2.0639    0.0000 C   0  0
    0.7145   -0.4125    0.0000 C   0  0
    0.7145    0.4125    0.0000 C   0  0
    0.0000    0.8250    0.0000 C   0  0
   -0.7145    0.4125    0.0000 C   0  0
   -0.7145   -0.4125    0.0000 C   0  0
    0.0000   -0.8250    0.0000 N   0  0
   -1.4987   -0.6674    0.0000 N   0  0
   -1.9836    0.0000    0.0000 C   0  0
   -2.8090    0.0000    0.0000 C   0  0
   -3.2722   -0.6794    0.0000 C   0  0
   -4.0948   -0.6174    0.0000 C   0  0
   -4.4524    0.1261    0.0000 C   0  0
   -5.1106    0.1758    0.0000 F   0  0
   -3.9873    0.8075    0.0000 C   0  0
   -3.1646    0.7455    0.0000 C   0  0
   -1.4987    0.6674    0.0000 N   0  0
   -1.7536    1.4525    0.0000 C   0  0
   -2.5430    1.6831    0.0000 C   0  0
   -2.7380    2.4847    0.0000 C   0  0
   -2.1413    3.0545    0.0000 N   0  0
   -1.3496    2.8226    0.0000 C   0  0
   -0.7514    3.3915    0.0000 N   0  0
    0.0404    3.1584    0.0000 C   0  0
    0.6837    3.6638    0.0000 C   0  0
    1.3634    3.1963    0.0000 C   0  0
    1.1288    2.4053    0.0000 C   0  0
    0.3040    2.3840    0.0000 C   0  0
   -1.1545    2.0210    0.0000 N   0  0
   -0.8806    3.9261    0.0000 H   0  0
  1  2  1  0
  2  3  1  0
  3  4  1  0
  4  5  1  0
  5  6  1  0
  5  8  1  0
  6  7  1  0
  7  2  1  0
  8  9  2  0
  9 10  1  0
 10 11  2  0
 11 12  1  0
 12 13  2  0
 12 14  1  0
 13  8  1  0
 14 15  2  0
 15 16  1  0
 15 23  1  0
 16 17  2  0
 17 18  1  0
 18 19  2  0
 19 20  1  0
 19 21  1  0
 21 22  2  0
 22 16  1  0
 23 11  1  0
 23 24  1  0
 24 25  2  0
 25 26  1  0
 26 27  2  0
 27 28  1  0
 28 29  1  0
 28 35  2  0
 29 30  1  0
 29 36  1  0
 30 31  1  0
 31 32  1  0
 32 33  1  0
 33 34  1  0
 34 30  1  0
 35 24  1  0
M  END
> <CMPD_CHEMBLID>
CHEMBL120185

> <STANDARD_TYPE>
IC50

> <RELATION>
>

> <STANDARD_VALUE>
10000

> <STANDARD_UNITS>
nM

> <Molecular_Weight>
472.56046

$$$$

  SciTegic11272012012D

 30 33  0  0  0  0            999 V2000
   -2.9774   -5.3442    0.0000 C   0  0
   -2.3320   -5.4824    0.0000 O   0  0
   -1.7784   -4.8702    0.0000 C   0  0
   -0.9714   -5.0419    0.0000 C   0  0
   -0.4193   -4.4288    0.0000 C   0  0
   -0.6741   -3.6442    0.0000 C   0  0
   -0.1229   -3.0297    0.0000 C   0  0
   -0.3789   -2.2450    0.0000 N   0  0
    0.1713   -1.6316    0.0000 C   0  0
    0.9918   -1.7178    0.0000 N   0  0
    1.3273   -0.9641    0.0000 N   0  0
    0.7144   -0.4125    0.0000 C   0  0
    0.7144    0.4125    0.0000 N   0  0
    0.0000    0.8250    0.0000 C   0  0
   -0.7144    0.4125    0.0000 N   0  0
   -0.7144   -0.4125    0.0000 C   0  0
   -1.4302   -0.8238    0.0000 N   0  0
   -2.1444   -0.4100    0.0000 C   0  0
   -2.8604   -0.8200    0.0000 C   0  0
   -3.5734   -0.4051    0.0000 C   0  0
   -3.5706    0.4199    0.0000 C   0  0
   -2.8546    0.8299    0.0000 C   0  0
   -2.8524    1.4899    0.0000 Cl  0  0
   -2.1416    0.4150    0.0000 C   0  0
    0.0000   -0.8250    0.0000 C   0  0
   -1.4810   -3.4726    0.0000 C   0  0
   -2.0332   -4.0855    0.0000 C   0  0
   -1.4311   -1.3738    0.0000 H   0  0
    1.2668   -2.1941    0.0000 H   0  0
   -0.9171   -2.1315    0.0000 H   0  0
  1  2  1  0
  2  3  1  0
  3  4  2  0
  4  5  1  0
  5  6  2  0
  6  7  1  0
  6 26  1  0
  7  8  1  0
  8  9  1  0
  8 30  1  0
  9 10  1  0
 10 11  1  0
 10 29  1  0
 11 12  2  0
 12 13  1  0
 13 14  2  0
 14 15  1  0
 15 16  2  0
 16 17  1  0
 16 25  1  0
 17 18  1  0
 17 28  1  0
 18 19  2  0
 19 20  1  0
 20 21  2  0
 21 22  1  0
 22 23  1  0
 22 24  2  0
 24 18  1  0
 25  9  2  0
 25 12  1  0
 26 27  2  0
 27  3  1  0
M  END
> <CMPD_CHEMBLID>
CHEMBL122245

> <STANDARD_TYPE>
IC50

> <RELATION>
>

> <STANDARD_VALUE>
10000

> <STANDARD_UNITS>
nM

> <Molecular_Weight>
380.83088

$$$$

  SciTegic11272012012D

 29 32  0  0  0  0            999 V2000
    1.2977   -5.5151    0.0000 C   0  0
    0.6514   -5.3810    0.0000 O   0  0
    0.3921   -4.5973    0.0000 C   0  0
   -0.4154   -4.4284    0.0000 C   0  0
   -0.6729   -3.6447    0.0000 C   0  0
   -0.1229   -3.0297    0.0000 C   0  0
   -0.3789   -2.2450    0.0000 N   0  0
    0.1713   -1.6316    0.0000 C   0  0
    0.9918   -1.7178    0.0000 N   0  0
    1.3273   -0.9641    0.0000 N   0  0
    0.7144   -0.4125    0.0000 C   0  0
    0.7144    0.4125    0.0000 N   0  0
    0.0000    0.8250    0.0000 C   0  0
   -0.7144    0.4125    0.0000 N   0  0
   -0.7144   -0.4125    0.0000 C   0  0
   -1.4302   -0.8238    0.0000 N   0  0
   -2.1444   -0.4100    0.0000 C   0  0
   -2.8604   -0.8200    0.0000 C   0  0
   -3.5734   -0.4051    0.0000 C   0  0
   -3.5706    0.4199    0.0000 C   0  0
   -2.8546    0.8299    0.0000 C   0  0
   -2.8524    1.4899    0.0000 Cl  0  0
   -2.1416    0.4150    0.0000 C   0  0
    0.0000   -0.8250    0.0000 C   0  0
    0.6847   -3.1986    0.0000 C   0  0
    0.9422   -3.9824    0.0000 C   0  0
   -1.4311   -1.3738    0.0000 H   0  0
    1.2668   -2.1941    0.0000 H   0  0
   -0.9171   -2.1315    0.0000 H   0  0
  1  2  1  0
  2  3  1  0
  3  4  2  0
  4  5  1  0
  5  6  2  0
  6  7  1  0
  6 25  1  0
  7  8  1  0
  7 29  1  0
  8  9  1  0
  9 10  1  0
  9 28  1  0
 10 11  2  0
 11 12  1  0
 12 13  2  0
 13 14  1  0
 14 15  2  0
 15 16  1  0
 15 24  1  0
 16 17  1  0
 16 27  1  0
 17 18  2  0
 18 19  1  0
 19 20  2  0
 20 21  1  0
 21 22  1  0
 21 23  2  0
 23 17  1  0
 24  8  2  0
 24 11  1  0
 25 26  2  0
 26  3  1  0
M  END
> <CMPD_CHEMBLID>
CHEMBL122411

> <STANDARD_TYPE>
IC50

> <RELATION>
>

> <STANDARD_VALUE>
10000

> <STANDARD_UNITS>
nM

> <Molecular_Weight>
366.8043

$$$$

  SciTegic11272012012D

 30 33  0  0  0  0            999 V2000
    1.2977   -5.5151    0.0000 C   0  0
    0.6514   -5.3810    0.0000 N   0  0
    0.2123   -5.8737    0.0000 C   0  0
    0.3921   -4.5973    0.0000 C   0  0
   -0.4154   -4.4284    0.0000 C   0  0
   -0.6729   -3.6447    0.0000 C   0  0
   -0.1229   -3.0297    0.0000 C   0  0
   -0.3789   -2.2450    0.0000 N   0  0
    0.1713   -1.6316    0.0000 C   0  0
    0.9918   -1.7178    0.0000 N   0  0
    1.3273   -0.9641    0.0000 N   0  0
    0.7144   -0.4125    0.0000 C   0  0
    0.7144    0.4125    0.0000 N   0  0
    0.0000    0.8250    0.0000 C   0  0
   -0.7144    0.4125    0.0000 N   0  0
   -0.7144   -0.4125    0.0000 C   0  0
   -1.4302   -0.8238    0.0000 N   0  0
   -2.1444   -0.4100    0.0000 C   0  0
   -2.8604   -0.8200    0.0000 C   0  0
   -3.5734   -0.4051    0.0000 C   0  0
   -3.5706    0.4199    0.0000 C   0  0
   -2.8546    0.8299    0.0000 C   0  0
   -2.8524    1.4899    0.0000 Cl  0  0
   -2.1416    0.4150    0.0000 C   0  0
    0.0000   -0.8250    0.0000 C   0  0
    0.6847   -3.1986    0.0000 C   0  0
    0.9422   -3.9824    0.0000 C   0  0
   -1.4311   -1.3738    0.0000 H   0  0
    1.2668   -2.1941    0.0000 H   0  0
   -0.9171   -2.1315    0.0000 H   0  0
  1  2  1  0
  2  3  1  0
  2  4  1  0
  4  5  2  0
  5  6  1  0
  6  7  2  0
  7  8  1  0
  7 26  1  0
  8  9  1  0
  8 30  1  0
  9 10  1  0
 10 11  1  0
 10 29  1  0
 11 12  2  0
 12 13  1  0
 13 14  2  0
 14 15  1  0
 15 16  2  0
 16 17  1  0
 16 25  1  0
 17 18  1  0
 17 28  1  0
 18 19  2  0
 19 20  1  0
 20 21  2  0
 21 22  1  0
 22 23  1  0
 22 24  2  0
 24 18  1  0
 25  9  2  0
 25 12  1  0
 26 27  2  0
 27  4  1  0
M  END
> <CMPD_CHEMBLID>
CHEMBL332765

> <STANDARD_TYPE>
IC50

> <RELATION>
>

> <STANDARD_VALUE>
10000

> <STANDARD_UNITS>
nM

> <Molecular_Weight>
379.84612

$$$$

  SciTegic11272012012D

 29 32  0  0  0  0            999 V2000
   -2.6787   -3.9482    0.0000 Cl  0  0
   -2.0332   -4.0855    0.0000 C   0  0
   -1.7784   -4.8702    0.0000 C   0  0
   -0.9714   -5.0419    0.0000 C   0  0
   -0.4193   -4.4289    0.0000 C   0  0
   -0.6741   -3.6442    0.0000 C   0  0
   -0.1229   -3.0297    0.0000 C   0  0
   -0.3789   -2.2450    0.0000 N   0  0
    0.1713   -1.6316    0.0000 C   0  0
    0.9918   -1.7178    0.0000 N   0  0
    1.3273   -0.9641    0.0000 N   0  0
    0.7144   -0.4125    0.0000 C   0  0
    0.7144    0.4125    0.0000 N   0  0
    0.0000    0.8250    0.0000 C   0  0
   -0.7144    0.4125    0.0000 N   0  0
   -0.7144   -0.4125    0.0000 C   0  0
   -1.4302   -0.8238    0.0000 N   0  0
   -2.1444   -0.4100    0.0000 C   0  0
   -2.8604   -0.8200    0.0000 C   0  0
   -3.5734   -0.4051    0.0000 C   0  0
   -3.5706    0.4199    0.0000 C   0  0
   -2.8547    0.8299    0.0000 C   0  0
   -2.8524    1.4899    0.0000 Cl  0  0
   -2.1416    0.4150    0.0000 C   0  0
    0.0000   -0.8250    0.0000 C   0  0
   -1.4810   -3.4726    0.0000 C   0  0
   -1.4311   -1.3738    0.0000 H   0  0
    1.2668   -2.1941    0.0000 H   0  0
   -0.9171   -2.1315    0.0000 H   0  0
  1  2  1  0
  2  3  2  0
  3  4  1  0
  4  5  2  0
  5  6  1  0
  6  7  1  0
  6 26  2  0
  7  8  1  0
  8  9  1  0
  8 29  1  0
  9 10  1  0
 10 11  1  0
 10 28  1  0
 11 12  2  0
 12 13  1  0
 13 14  2  0
 14 15  1  0
 15 16  2  0
 16 17  1  0
 16 25  1  0
 17 18  1  0
 17 27  1  0
 18 19  2  0
 19 20  1  0
 20 21  2  0
 21 22  1  0
 22 23  1  0
 22 24  2  0
 24 18  1  0
 25  9  2  0
 25 12  1  0
 26  2  1  0
M  END
> <CMPD_CHEMBLID>
CHEMBL333231

> <STANDARD_TYPE>
IC50

> <RELATION>
>

> <STANDARD_VALUE>
10000

> <STANDARD_UNITS>
nM

> <Molecular_Weight>
385.24996

$$$$

  SciTegic11272012012D

 27 30  0  0  0  0            999 V2000
    1.5882   -4.1175    0.0000 Cl  0  0
    0.9422   -3.9824    0.0000 C   0  0
    0.3921   -4.5973    0.0000 C   0  0
   -0.4154   -4.4284    0.0000 C   0  0
   -0.6729   -3.6447    0.0000 C   0  0
   -0.1229   -3.0297    0.0000 C   0  0
   -0.3789   -2.2450    0.0000 N   0  0
    0.1713   -1.6316    0.0000 C   0  0
    0.9918   -1.7178    0.0000 N   0  0
    1.3273   -0.9641    0.0000 N   0  0
    0.7144   -0.4125    0.0000 C   0  0
    0.7144    0.4125    0.0000 N   0  0
    0.0000    0.8250    0.0000 C   0  0
   -0.7144    0.4125    0.0000 N   0  0
   -0.7144   -0.4125    0.0000 C   0  0
   -1.4302   -0.8238    0.0000 O   0  0
   -2.1444   -0.4100    0.0000 C   0  0
   -2.8604   -0.8200    0.0000 C   0  0
   -3.5734   -0.4051    0.0000 C   0  0
   -3.5706    0.4199    0.0000 C   0  0
   -2.8546    0.8299    0.0000 C   0  0
   -2.8524    1.4899    0.0000 Cl  0  0
   -2.1416    0.4150    0.0000 C   0  0
    0.0000   -0.8250    0.0000 C   0  0
    0.6847   -3.1986    0.0000 C   0  0
    1.2668   -2.1941    0.0000 H   0  0
   -0.9171   -2.1315    0.0000 H   0  0
  1  2  1  0
  2  3  2  0
  3  4  1  0
  4  5  2  0
  5  6  1  0
  6  7  1  0
  6 25  2  0
  7  8  1  0
  7 27  1  0
  8  9  1  0
  9 10  1  0
  9 26  1  0
 10 11  2  0
 11 12  1  0
 12 13  2  0
 13 14  1  0
 14 15  2  0
 15 16  1  0
 15 24  1  0
 16 17  1  0
 17 18  2  0
 18 19  1  0
 19 20  2  0
 20 21  1  0
 21 22  1  0
 21 23  2  0
 23 17  1  0
 24  8  2  0
 24 11  1  0
 25  2  1  0
M  END
> <CMPD_CHEMBLID>
CHEMBL334026

> <STANDARD_TYPE>
IC50

> <RELATION>
>

> <STANDARD_VALUE>
10000

> <STANDARD_UNITS>
nM

> <Molecular_Weight>
372.20814

$$$$

  SciTegic11272012012D

 26 28  0  0  0  0            999 V2000
    4.8613   -0.4880    0.0000 C   0  0
    4.2902   -0.8188    0.0000 C   0  0
    4.2914   -1.4788    0.0000 C   0  0
    4.8623   -1.1479    0.0000 C   0  0
    3.5745   -0.4075    0.0000 C   0  0
    2.8602   -0.8213    0.0000 N   0  0
    2.1445   -0.4100    0.0000 C   0  0
    2.1433    0.2500    0.0000 O   0  0
    1.4302   -0.8237    0.0000 C   0  0
    0.7145   -0.4125    0.0000 C   0  0
    0.7145    0.4125    0.0000 C   0  0
    0.0000    0.8250    0.0000 N   0  0
   -0.7145    0.4125    0.0000 C   0  0
   -1.2861    0.7425    0.0000 O   0  0
   -0.7145   -0.4125    0.0000 C   0  0
   -1.3273   -0.9642    0.0000 C   0  0
   -0.9918   -1.7178    0.0000 C   0  0
   -0.1713   -1.6316    0.0000 C   0  0
    0.0000   -0.8250    0.0000 N   0  0
   -1.4045   -2.4327    0.0000 C   0  0
   -2.2080   -2.5712    0.0000 C   0  0
   -2.3159   -3.3891    0.0000 C   0  0
   -1.5713   -3.7444    0.0000 S   0  0
   -1.0033   -3.1461    0.0000 C   0  0
    0.0000    1.3750    0.0000 H   0  0
    2.8612   -1.3713    0.0000 H   0  0
  1  2  1  0
  2  3  1  0
  2  4  1  0
  2  5  1  0
  5  6  1  0
  6  7  1  0
  6 26  1  0
  7  8  2  0
  7  9  1  0
  9 10  1  0
 10 11  1  0
 11 12  1  0
 12 13  1  0
 12 25  1  0
 13 14  2  0
 13 15  1  0
 15 16  2  0
 16 17  1  0
 17 18  2  0
 17 20  1  0
 18 19  1  0
 19 10  1  0
 19 15  1  0
 20 21  1  0
 21 22  2  0
 22 23  1  0
 23 24  1  0
 24 20  2  0
M  END
> <CMPD_CHEMBLID>
CHEMBL3298400

> <STANDARD_TYPE>
IC50

> <RELATION>
>

> <STANDARD_VALUE>
10000

> <STANDARD_UNITS>
nM

> <Molecular_Weight>
345.45912

$$$$

  SciTegic11272012012D

 28 31  0  0  0  0            999 V2000
    1.5882   -4.1175    0.0000 Cl  0  0
    0.9422   -3.9824    0.0000 C   0  0
    0.3921   -4.5973    0.0000 C   0  0
   -0.4154   -4.4284    0.0000 C   0  0
   -0.6729   -3.6447    0.0000 C   0  0
   -0.1229   -3.0297    0.0000 C   0  0
   -0.3789   -2.2450    0.0000 N   0  0
    0.1713   -1.6316    0.0000 C   0  0
    0.9918   -1.7178    0.0000 N   0  0
    1.3273   -0.9641    0.0000 N   0  0
    0.7144   -0.4125    0.0000 C   0  0
    0.7144    0.4125    0.0000 N   0  0
    0.0000    0.8250    0.0000 C   0  0
   -0.7144    0.4125    0.0000 N   0  0
   -0.7144   -0.4125    0.0000 C   0  0
   -1.4302   -0.8238    0.0000 N   0  0
   -2.1444   -0.4100    0.0000 C   0  0
   -2.8602   -0.8213    0.0000 C   0  0
   -3.5747   -0.4088    0.0000 C   0  0
   -4.2892   -0.8213    0.0000 C   0  0
   -4.2892   -1.6463    0.0000 C   0  0
   -3.5747   -2.0588    0.0000 C   0  0
   -2.8602   -1.6463    0.0000 C   0  0
    0.0000   -0.8250    0.0000 C   0  0
    0.6847   -3.1986    0.0000 C   0  0
   -1.4312   -1.3738    0.0000 H   0  0
    1.2668   -2.1941    0.0000 H   0  0
   -0.9171   -2.1315    0.0000 H   0  0
  1  2  1  0
  2  3  2  0
  3  4  1  0
  4  5  2  0
  5  6  1  0
  6  7  1  0
  6 25  2  0
  7  8  1  0
  7 28  1  0
  8  9  1  0
  9 10  1  0
  9 27  1  0
 10 11  2  0
 11 12  1  0
 12 13  2  0
 13 14  1  0
 14 15  2  0
 15 16  1  0
 15 24  1  0
 16 17  1  0
 16 26  1  0
 17 18  1  0
 18 19  2  0
 19 20  1  0
 20 21  2  0
 21 22  1  0
 22 23  2  0
 23 18  1  0
 24  8  2  0
 24 11  1  0
 25  2  1  0
M  END
> <CMPD_CHEMBLID>
CHEMBL119982

> <STANDARD_TYPE>
IC50

> <RELATION>
>

> <STANDARD_VALUE>
10000

> <STANDARD_UNITS>
nM

> <Molecular_Weight>
350.8049

$$$$

  SciTegic11272012012D

 28 32  0  0  0  0            999 V2000
    0.7144   -0.4125    0.0000 C   0  0
    0.7144    0.4125    0.0000 C   0  0
    0.0000    0.8250    0.0000 O   0  0
   -0.7144    0.4125    0.0000 C   0  0
   -1.4290    0.8250    0.0000 C   0  0
   -2.1434    0.4125    0.0000 C   0  0
   -2.8579    0.8250    0.0000 C   0  0
   -2.8596    1.6504    0.0000 N   0  0
   -3.5750    2.0622    0.0000 C   0  0
   -3.5780    2.8872    0.0000 C   0  0
   -4.2938    3.2972    0.0000 C   0  0
   -5.0069    2.8822    0.0000 C   0  0
   -5.0040    2.0572    0.0000 C   0  0
   -4.2881    1.6472    0.0000 C   0  0
   -5.7174    1.6420    0.0000 C   0  0
   -5.7891    0.8271    0.0000 C   0  0
   -6.5953    0.6516    0.0000 C   0  0
   -7.0113    1.3639    0.0000 C   0  0
   -6.4624    1.9798    0.0000 N   0  0
   -3.5723    0.4125    0.0000 N   0  0
   -3.5723   -0.4125    0.0000 C   0  0
   -2.8578   -0.8250    0.0000 N   0  0
   -2.1434   -0.4125    0.0000 C   0  0
   -1.4290   -0.8250    0.0000 C   0  0
   -0.7144   -0.4125    0.0000 C   0  0
    0.0000   -0.8250    0.0000 O   0  0
   -6.5763    2.5179    0.0000 H   0  0
   -2.3837    1.9263    0.0000 H   0  0
  1  2  1  0
  2  3  1  0
  3  4  1  0
  4  5  2  0
  5  6  1  0
  6  7  2  0
  7  8  1  0
  7 20  1  0
  8  9  1  0
  8 28  1  0
  9 10  2  0
 10 11  1  0
 11 12  2  0
 12 13  1  0
 13 14  2  0
 13 15  1  0
 14  9  1  0
 15 16  2  0
 16 17  1  0
 17 18  2  0
 18 19  1  0
 19 15  1  0
 19 27  1  0
 20 21  2  0
 21 22  1  0
 22 23  2  0
 23  6  1  0
 23 24  1  0
 24 25  2  0
 25  4  1  0
 25 26  1  0
 26  1  1  0
M  END
> <CMPD_CHEMBLID>
CHEMBL3297959

> <STANDARD_TYPE>
IC50

> <RELATION>
>

> <STANDARD_VALUE>
10000

> <STANDARD_UNITS>
nM

> <Molecular_Weight>
344.36664

$$$$

  SciTegic11272012012D

 27 31  0  0  0  0            999 V2000
    0.7144   -0.4125    0.0000 C   0  0
    0.7144    0.4125    0.0000 C   0  0
    0.0000    0.8250    0.0000 O   0  0
   -0.7144    0.4125    0.0000 C   0  0
   -1.4290    0.8250    0.0000 C   0  0
   -2.1434    0.4125    0.0000 C   0  0
   -2.8579    0.8250    0.0000 C   0  0
   -2.8596    1.6504    0.0000 N   0  0
   -3.5751    2.0622    0.0000 C   0  0
   -3.6537    2.8763    0.0000 N   0  0
   -4.4613    3.0451    0.0000 C   0  0
   -4.8713    2.3291    0.0000 C   0  0
   -4.3171    1.7180    0.0000 S   0  0
   -4.7996    3.7979    0.0000 C   0  0
   -4.3698    4.4989    0.0000 C   0  0
   -4.7636    5.2238    0.0000 C   0  0
   -5.5883    5.2452    0.0000 C   0  0
   -6.0192    4.5416    0.0000 C   0  0
   -5.6254    3.8167    0.0000 C   0  0
   -3.5724    0.4125    0.0000 N   0  0
   -3.5724   -0.4125    0.0000 C   0  0
   -2.8579   -0.8250    0.0000 N   0  0
   -2.1434   -0.4125    0.0000 C   0  0
   -1.4290   -0.8250    0.0000 C   0  0
   -0.7144   -0.4125    0.0000 C   0  0
    0.0000   -0.8250    0.0000 O   0  0
   -2.3838    1.9263    0.0000 H   0  0
  1  2  1  0
  2  3  1  0
  3  4  1  0
  4  5  2  0
  5  6  1  0
  6  7  2  0
  7  8  1  0
  7 20  1  0
  8  9  1  0
  8 27  1  0
  9 10  2  0
 10 11  1  0
 11 12  2  0
 11 14  1  0
 12 13  1  0
 13  9  1  0
 14 15  2  0
 15 16  1  0
 16 17  2  0
 17 18  1  0
 18 19  2  0
 19 14  1  0
 20 21  2  0
 21 22  1  0
 22 23  2  0
 23  6  1  0
 23 24  1  0
 24 25  2  0
 25  4  1  0
 25 26  1  0
 26  1  1  0
M  END
> <CMPD_CHEMBLID>
CHEMBL3297958

> <STANDARD_TYPE>
IC50

> <RELATION>
>

> <STANDARD_VALUE>
10000

> <STANDARD_UNITS>
nM

> <Molecular_Weight>
362.40506

$$$$

  SciTegic11272012012D

 28 31  0  0  0  0            999 V2000
   -3.0394   -2.8014    0.0000 O   0  5
   -2.5613   -2.3465    0.0000 N   0  3
   -2.7165   -1.7049    0.0000 O   0  0
   -1.7696   -2.5800    0.0000 C   0  0
   -1.5745   -3.3817    0.0000 C   0  0
   -0.7828   -3.6135    0.0000 C   0  0
   -0.1861   -3.0437    0.0000 C   0  0
   -0.3810   -2.2449    0.0000 C   0  0
   -1.1730   -2.0103    0.0000 C   0  0
    0.1713   -1.6316    0.0000 C   0  0
    0.9918   -1.7178    0.0000 N   0  0
    1.3273   -0.9641    0.0000 N   0  0
    0.7144   -0.4125    0.0000 C   0  0
    0.7144    0.4125    0.0000 N   0  0
    0.0000    0.8250    0.0000 C   0  0
   -0.7144    0.4125    0.0000 N   0  0
   -0.7144   -0.4125    0.0000 C   0  0
   -1.4302   -0.8238    0.0000 N   0  0
   -2.1444   -0.4100    0.0000 C   0  0
   -2.8604   -0.8200    0.0000 C   0  0
   -3.5734   -0.4051    0.0000 C   0  0
   -3.5706    0.4199    0.0000 C   0  0
   -2.8546    0.8299    0.0000 C   0  0
   -2.8524    1.4899    0.0000 Cl  0  0
   -2.1416    0.4150    0.0000 C   0  0
    0.0000   -0.8250    0.0000 C   0  0
   -1.4311   -1.3738    0.0000 H   0  0
    1.2668   -2.1941    0.0000 H   0  0
  1  2  1  0
  2  3  2  0
  2  4  1  0
  4  5  2  0
  5  6  1  0
  6  7  2  0
  7  8  1  0
  8  9  2  0
  8 10  1  0
  9  4  1  0
 10 11  1  0
 11 12  1  0
 11 28  1  0
 12 13  2  0
 13 14  1  0
 14 15  2  0
 15 16  1  0
 16 17  2  0
 17 18  1  0
 17 26  1  0
 18 19  1  0
 18 27  1  0
 19 20  2  0
 20 21  1  0
 21 22  2  0
 22 23  1  0
 23 24  1  0
 23 25  2  0
 25 19  1  0
 26 10  2  0
 26 13  1  0
M  CHG  2   1  -1   2   1
M  END
> <CMPD_CHEMBLID>
CHEMBL118904

> <STANDARD_TYPE>
IC50

> <RELATION>
>

> <STANDARD_VALUE>
10000

> <STANDARD_UNITS>
nM

> <Molecular_Weight>
366.76124

$$$$

  SciTegic11272012012D

 39 42  0  0  0  0            999 V2000
    1.2861   -0.7425    0.0000 C   0  0
    0.7144   -0.4125    0.0000 C   0  0
    0.7144    0.4125    0.0000 C   0  0
    0.0000    0.8250    0.0000 C   0  0
   -0.7144    0.4125    0.0000 C   0  0
   -1.4302    0.8237    0.0000 N   0  0
   -2.1444    0.4100    0.0000 C   0  0
   -2.1433   -0.2500    0.0000 O   0  0
   -2.8601    0.8213    0.0000 C   0  0
   -3.5746    0.4088    0.0000 C   0  0
   -4.2891    0.8213    0.0000 C   0  0
   -4.2891    1.6463    0.0000 C   0  0
   -5.0032    2.0604    0.0000 C   0  0
   -5.0021    2.8859    0.0000 N   0  0
   -5.7161    3.3000    0.0000 C   0  0
   -5.7149    4.1255    0.0000 C   0  0
   -6.2858    4.4566    0.0000 Cl  0  0
   -4.2873    3.2988    0.0000 C   0  0
   -4.2871    4.1243    0.0000 C   0  0
   -3.7156    4.4545    0.0000 Cl  0  0
   -3.5747    2.0587    0.0000 C   0  0
   -2.8602    1.6463    0.0000 C   0  0
   -0.7144   -0.4125    0.0000 C   0  0
    0.0000   -0.8250    0.0000 C   0  0
   -0.0017   -1.6504    0.0000 N   0  0
   -0.7171   -2.0622    0.0000 C   0  0
   -0.7201   -2.8872    0.0000 N   0  0
   -1.4359   -3.2972    0.0000 C   0  0
   -2.1489   -2.8822    0.0000 C   0  0
   -2.1461   -2.0572    0.0000 C   0  0
   -1.4302   -1.6472    0.0000 N   0  0
   -2.8595   -1.6421    0.0000 C   0  0
   -3.5761   -2.0509    0.0000 C   0  0
   -4.2885   -1.6348    0.0000 C   0  0
   -4.2843   -0.8099    0.0000 C   0  0
   -3.5678   -0.4009    0.0000 N   0  0
   -2.8554   -0.8170    0.0000 C   0  0
    0.4742   -1.9263    0.0000 H   0  0
   -1.4311    1.3737    0.0000 H   0  0
  1  2  1  0
  2  3  2  0
  3  4  1  0
  4  5  2  0
  5  6  1  0
  5 23  1  0
  6  7  1  0
  6 39  1  0
  7  8  2  0
  7  9  1  0
  9 10  2  0
 10 11  1  0
 11 12  2  0
 12 13  1  0
 12 21  1  0
 13 14  1  0
 14 15  1  0
 14 18  1  0
 15 16  1  0
 16 17  1  0
 18 19  1  0
 19 20  1  0
 21 22  2  0
 22  9  1  0
 23 24  2  0
 24  2  1  0
 24 25  1  0
 25 26  1  0
 25 38  1  0
 26 27  2  0
 27 28  1  0
 28 29  2  0
 29 30  1  0
 30 31  2  0
 30 32  1  0
 31 26  1  0
 32 33  2  0
 33 34  1  0
 34 35  2  0
 35 36  1  0
 36 37  2  0
 37 32  1  0
M  END
> <CMPD_CHEMBLID>
CHEMBL231634

> <STANDARD_TYPE>
IC50

> <RELATION>
>

> <STANDARD_VALUE>
10000

> <STANDARD_UNITS>
nM

> <Molecular_Weight>
535.46752

$$$$

  SciTegic11272012012D

 26 28  0  0  0  0            999 V2000
    1.0529   -2.9956    0.0000 N   0  0
    0.8876   -2.1868    0.0000 C   0  0
    0.2614   -1.9781    0.0000 O   0  0
    1.5039   -1.6399    0.0000 C   0  0
    2.3106   -1.8126    0.0000 C   0  0
    2.7243   -1.0988    0.0000 C   0  0
    2.1732   -0.4848    0.0000 N   0  0
    1.4293   -0.8252    0.0000 C   0  0
    0.7145   -0.4125    0.0000 C   0  0
    0.7145    0.4125    0.0000 C   0  0
    0.0000    0.8250    0.0000 C   0  0
   -0.7145    0.4125    0.0000 C   0  0
   -0.7145   -0.4125    0.0000 C   0  0
    0.0000   -0.8250    0.0000 C   0  0
    3.5453   -1.0138    0.0000 C   0  0
    4.0759   -1.6420    0.0000 C   0  0
    4.8878   -1.4955    0.0000 C   0  0
    5.1670   -0.7191    0.0000 N   0  0
    4.6342   -0.0893    0.0000 C   0  0
    4.9119    0.6881    0.0000 N   0  0
    3.8223   -0.2357    0.0000 N   0  0
    4.5561    1.1076    0.0000 H   0  0
    5.4530    0.7867    0.0000 H   0  0
    2.2852    0.0537    0.0000 H   0  0
    0.6415   -3.3606    0.0000 H   0  0
    1.5747   -3.1694    0.0000 H   0  0
  1  2  1  0
  1 25  1  0
  1 26  1  0
  2  3  2  0
  2  4  1  0
  4  5  1  0
  5  6  2  0
  6  7  1  0
  6 15  1  0
  7  8  1  0
  7 24  1  0
  8  4  2  0
  8  9  1  0
  9 10  2  0
 10 11  1  0
 11 12  2  0
 12 13  1  0
 13 14  2  0
 14  9  1  0
 15 16  2  0
 16 17  1  0
 17 18  2  0
 18 19  1  0
 19 20  1  0
 19 21  2  0
 20 22  1  0
 20 23  1  0
 21 15  1  0
M  END
> <CMPD_CHEMBLID>
CHEMBL1270230

> <STANDARD_TYPE>
IC50

> <RELATION>
>

> <STANDARD_VALUE>
10000

> <STANDARD_UNITS>
nM

> <Molecular_Weight>
279.29662

$$$$

  SciTegic11272012012D

 27 29  0  0  0  0            999 V2000
    3.4241   -4.4604    0.0000 C   0  0
    2.8532   -4.1292    0.0000 C   0  0
    2.2811   -4.4581    0.0000 C   0  0
    2.8519   -4.7892    0.0000 C   0  0
    2.8546   -3.3037    0.0000 N   0  0
    2.1406   -2.8894    0.0000 S   0  0
    1.5684   -3.2183    0.0000 O   0  0
    2.1393   -3.5494    0.0000 O   0  0
    2.1419   -2.0639    0.0000 C   0  0
    2.8570   -1.6525    0.0000 C   0  0
    2.8584   -0.8275    0.0000 N   0  0
    2.1446   -0.4139    0.0000 C   0  0
    1.4293   -0.8252    0.0000 C   0  0
    1.4281   -1.6503    0.0000 C   0  0
    0.7145   -0.4125    0.0000 C   0  0
    0.7145    0.4125    0.0000 C   0  0
    0.0000    0.8250    0.0000 C   0  0
   -0.7145    0.4125    0.0000 N   0  0
   -1.4987    0.6674    0.0000 N   0  0
   -1.9836    0.0000    0.0000 C   0  0
   -2.8076   -0.0017    0.0000 N   0  0
   -1.4987   -0.6674    0.0000 N   0  0
   -0.7145   -0.4125    0.0000 C   0  0
    0.0000   -0.8250    0.0000 C   0  0
   -3.0820   -0.4785    0.0000 H   0  0
   -3.0835    0.4741    0.0000 H   0  0
    3.3314   -3.0296    0.0000 H   0  0
  1  2  1  0
  2  3  1  0
  2  4  1  0
  2  5  1  0
  5  6  1  0
  5 27  1  0
  6  7  2  0
  6  8  2  0
  6  9  1  0
  9 10  2  0
 10 11  1  0
 11 12  2  0
 12 13  1  0
 13 14  2  0
 13 15  1  0
 14  9  1  0
 15 16  1  0
 16 17  2  0
 17 18  1  0
 18 19  1  0
 19 20  2  0
 20 21  1  0
 20 22  1  0
 21 25  1  0
 21 26  1  0
 22 23  2  0
 23 18  1  0
 23 24  1  0
 24 15  2  0
M  END
> <CMPD_CHEMBLID>
CHEMBL2205766

> <STANDARD_TYPE>
IC50

> <RELATION>
>

> <STANDARD_VALUE>
10000

> <STANDARD_UNITS>
nM

> <Molecular_Weight>
346.40742

$$$$

  SciTegic11272012012D

 35 39  0  0  0  0            999 V2000
    0.8551   -1.9812    0.0000 C   0  0
    1.4273   -1.6521    0.0000 C   0  0
    1.4285   -0.8267    0.0000 N   0  0
    0.7144   -0.4125    0.0000 C   0  0
    0.7144    0.4125    0.0000 C   0  0
    0.0000    0.8250    0.0000 C   0  0
   -0.7144    0.4125    0.0000 C   0  0
   -0.7144   -0.4125    0.0000 C   0  0
    0.0000   -0.8250    0.0000 N   0  0
    0.0000    1.6504    0.0000 C   0  0
   -0.6682    2.1223    0.0000 S   0  0
   -0.4145    2.9073    0.0000 C   0  0
    0.4105    2.9086    0.0000 N   0  0
    0.6667    2.1244    0.0000 C   0  0
    1.4506    1.8659    0.0000 C   0  0
    1.6809    1.0767    0.0000 C   0  0
    2.4824    0.8814    0.0000 C   0  0
    3.0524    1.4779    0.0000 C   0  0
    3.6936    1.3216    0.0000 F   0  0
    2.8207    2.2697    0.0000 C   0  0
    2.0192    2.4650    0.0000 C   0  0
   -0.9007    3.5743    0.0000 C   0  0
   -1.7226    3.5483    0.0000 C   0  0
   -2.1570    4.2497    0.0000 C   0  0
   -1.7669    4.9766    0.0000 N   0  0
   -2.1144    5.5377    0.0000 C   0  0
   -0.9423    5.0021    0.0000 C   0  0
   -0.5078    4.3008    0.0000 C   0  0
    2.1413   -2.0663    0.0000 C   0  0
    2.1414   -2.8913    0.0000 C   0  0
    2.8558   -3.3038    0.0000 C   0  0
    3.5703   -2.8914    0.0000 C   0  0
    3.5703   -2.0664    0.0000 C   0  0
    2.8559   -1.6538    0.0000 C   0  0
    1.9053   -0.5525    0.0000 H   0  0
  1  2  1  0
  2  3  1  0
  2 29  1  0
  3  4  1  0
  3 35  1  0
  4  5  2  0
  5  6  1  0
  6  7  2  0
  6 10  1  0
  7  8  1  0
  8  9  2  0
  9  4  1  0
 10 11  1  0
 11 12  1  0
 12 13  2  0
 12 22  1  0
 13 14  1  0
 14 10  2  0
 14 15  1  0
 15 16  2  0
 16 17  1  0
 17 18  2  0
 18 19  1  0
 18 20  1  0
 20 21  2  0
 21 15  1  0
 22 23  1  0
 23 24  1  0
 24 25  1  0
 25 26  1  0
 25 27  1  0
 27 28  1  0
 28 22  1  0
 29 30  2  0
 30 31  1  0
 31 32  2  0
 32 33  1  0
 33 34  2  0
 34 29  1  0
M  END
> <CMPD_CHEMBLID>
CHEMBL2111784

> <STANDARD_TYPE>
IC50

> <RELATION>
>

> <STANDARD_VALUE>
10000

> <STANDARD_UNITS>
nM

> <Molecular_Weight>
472.62006

$$$$

  SciTegic11272012012D

 32 36  0  0  0  0            999 V2000
    1.9982   -1.9833    0.0000 C   0  0
    1.4273   -1.6521    0.0000 C   0  0
    1.4285   -0.8267    0.0000 O   0  0
    0.7144   -0.4125    0.0000 C   0  0
    0.7144    0.4125    0.0000 C   0  0
    0.0000    0.8250    0.0000 C   0  0
   -0.7144    0.4125    0.0000 C   0  0
   -1.4290    0.8250    0.0000 C   0  0
   -2.1434    0.4125    0.0000 C   0  0
   -2.1434   -0.4125    0.0000 C   0  0
   -1.4290   -0.8250    0.0000 C   0  0
   -0.7144   -0.4125    0.0000 C   0  0
    0.0000   -0.8250    0.0000 C   0  0
   -2.8582    0.8252    0.0000 C   0  0
   -3.6010    0.4826    0.0000 N   0  0
   -4.1539    1.0949    0.0000 N   0  0
   -4.9747    1.0075    0.0000 C   0  0
   -5.3633    0.2829    0.0000 C   0  0
   -6.1879    0.2575    0.0000 C   0  0
   -6.6222    0.9590    0.0000 N   0  0
   -7.2819    0.9387    0.0000 C   0  0
   -6.2319    1.6858    0.0000 C   0  0
   -5.4073    1.7112    0.0000 C   0  0
   -3.7426    1.8095    0.0000 C   0  0
   -3.9986    2.5937    0.0000 N   0  0
   -3.4475    3.2077    0.0000 C   0  0
   -2.6403    3.0373    0.0000 N   0  0
   -2.3842    2.2530    0.0000 C   0  0
   -1.5762    2.0842    0.0000 N   0  0
   -2.9353    1.6391    0.0000 C   0  0
   -1.2093    2.4940    0.0000 H   0  0
   -1.4045    1.5617    0.0000 H   0  0
  1  2  1  0
  2  3  1  0
  3  4  1  0
  4  5  2  0
  5  6  1  0
  6  7  2  0
  7  8  1  0
  8  9  2  0
  9 10  1  0
  9 14  1  0
 10 11  2  0
 11 12  1  0
 12  7  1  0
 12 13  2  0
 13  4  1  0
 14 15  2  0
 15 16  1  0
 16 17  1  0
 16 24  1  0
 17 18  1  0
 18 19  1  0
 19 20  1  0
 20 21  1  0
 20 22  1  0
 22 23  1  0
 23 17  1  0
 24 25  2  0
 25 26  1  0
 26 27  2  0
 27 28  1  0
 28 29  1  0
 28 30  2  0
 29 31  1  0
 29 32  1  0
 30 14  1  0
 30 24  1  0
M  END
> <CMPD_CHEMBLID>
CHEMBL2070075

> <STANDARD_TYPE>
IC50

> <RELATION>
>

> <STANDARD_VALUE>
10000

> <STANDARD_UNITS>
nM

> <Molecular_Weight>
402.49214

$$$$

  SciTegic11272012012D

 29 31  0  0  0  0            999 V2000
    2.1081   -1.6791    0.0000 C   0  0
    1.7191   -1.1460    0.0000 C   0  0
    1.9865   -0.5425    0.0000 C   0  0
    2.3753   -1.0757    0.0000 C   0  0
    0.8983   -1.2335    0.0000 C   0  0
    0.6309   -1.8369    0.0000 O   0  0
    0.4125   -0.5678    0.0000 N   0  0
    0.6674    0.2169    0.0000 C   0  0
    0.0000    0.7018    0.0000 C   0  0
   -0.2543    1.4855    0.0000 C   0  0
    0.2290    2.1530    0.0000 N   0  0
   -0.1074    2.9068    0.0000 C   0  0
   -0.7639    2.9749    0.0000 O   0  0
    0.3767    3.5754    0.0000 C   0  0
    0.0415    4.3292    0.0000 C   0  0
    0.5267    4.9964    0.0000 C   0  0
    0.2586    5.5995    0.0000 F   0  0
    1.3472    4.9099    0.0000 C   0  0
    1.6824    4.1560    0.0000 C   0  0
    2.3388    4.0867    0.0000 F   0  0
    1.1972    3.4888    0.0000 C   0  0
   -1.0793    1.4855    0.0000 N   0  0
   -1.3342    0.7009    0.0000 N   0  0
   -0.6674    0.2169    0.0000 C   0  0
   -0.4125   -0.5678    0.0000 C   0  0
   -1.0678   -0.4890    0.0000 C   0  0
   -0.1351   -1.1667    0.0000 C   0  0
   -1.8573    0.5308    0.0000 H   0  0
    0.7761    2.0962    0.0000 H   0  0
  1  2  1  0
  2  3  1  0
  2  4  1  0
  2  5  1  0
  5  6  2  0
  5  7  1  0
  7  8  1  0
  8  9  1  0
  9 10  1  0
 10 11  1  0
 10 22  2  0
 11 12  1  0
 11 29  1  0
 12 13  2  0
 12 14  1  0
 14 15  2  0
 15 16  1  0
 16 17  1  0
 16 18  2  0
 18 19  1  0
 19 20  1  0
 19 21  2  0
 21 14  1  0
 22 23  1  0
 23 24  1  0
 23 28  1  0
 24  9  2  0
 24 25  1  0
 25  7  1  0
 25 26  1  0
 25 27  1  0
M  END
> <CMPD_CHEMBLID>
CHEMBL604712

> <STANDARD_TYPE>
IC50

> <RELATION>
>

> <STANDARD_VALUE>
10000

> <STANDARD_UNITS>
nM

> <Molecular_Weight>
376.40039

$$$$

  SciTegic11272012012D

 29 31  0  0  0  0            999 V2000
    0.8551   -1.9812    0.0000 C   0  0
    1.4273   -1.6521    0.0000 C   0  0
    1.4285   -0.8267    0.0000 O   0  0
    0.7144   -0.4125    0.0000 C   0  0
    0.7144    0.4125    0.0000 C   0  0
    0.0000    0.8250    0.0000 C   0  0
   -0.7144    0.4125    0.0000 C   0  0
   -1.4290    0.8250    0.0000 N   0  0
   -2.1434    0.4125    0.0000 C   0  0
   -2.1434   -0.4125    0.0000 C   0  0
   -2.8574   -0.8267    0.0000 C   0  0
   -2.8563   -1.6521    0.0000 C   0  0
   -3.5703   -2.0663    0.0000 C   0  0
   -4.1424   -1.7374    0.0000 O   0  0
   -3.5691   -2.8918    0.0000 N   0  0
   -1.4290   -0.8250    0.0000 C   0  0
   -0.7144   -0.4125    0.0000 C   0  0
    0.0000   -0.8250    0.0000 C   0  0
    2.1413   -2.0663    0.0000 C   0  0
    2.1414   -2.8913    0.0000 C   0  0
    1.5698   -3.2214    0.0000 Cl  0  0
    2.8558   -3.3038    0.0000 C   0  0
    3.5703   -2.8914    0.0000 C   0  0
    3.5703   -2.0664    0.0000 C   0  0
    4.1419   -1.7364    0.0000 F   0  0
    2.8559   -1.6539    0.0000 C   0  0
    2.8559   -0.9938    0.0000 Cl  0  0
   -4.0448   -3.1678    0.0000 H   0  0
   -3.0923   -3.1660    0.0000 H   0  0
  1  2  1  0
  2  3  1  0
  2 19  1  0
  3  4  1  0
  4  5  2  0
  5  6  1  0
  6  7  2  0
  7  8  1  0
  8  9  2  0
  9 10  1  0
 10 11  1  0
 10 16  2  0
 11 12  2  0
 12 13  1  0
 13 14  2  0
 13 15  1  0
 15 28  1  0
 15 29  1  0
 16 17  1  0
 17  7  1  0
 17 18  2  0
 18  4  1  0
 19 20  2  0
 20 21  1  0
 20 22  1  0
 22 23  2  0
 23 24  1  0
 24 25  1  0
 24 26  2  0
 26 19  1  0
 26 27  1  0
M  END
> <CMPD_CHEMBLID>
CHEMBL602471

> <STANDARD_TYPE>
IC50

> <RELATION>
=

> <STANDARD_VALUE>
10000

> <STANDARD_UNITS>
nM

> <Molecular_Weight>
405.2497

$$$$

  SciTegic11272012012D

 24 25  0  0  0  0            999 V2000
    2.0013   -0.4930    0.0000 C   0  0
    1.4302   -0.8237    0.0000 O   0  0
    0.7144   -0.4125    0.0000 C   0  0
    0.7144    0.4125    0.0000 C   0  0
    0.0000    0.8250    0.0000 C   0  0
   -0.7144    0.4125    0.0000 C   0  0
   -1.4302    0.8237    0.0000 C   0  0
   -2.1444    0.4100    0.0000 C   0  0
   -2.8602    0.8213    0.0000 C   0  0
   -3.5747    0.4088    0.0000 C   0  0
   -4.2892    0.8213    0.0000 C   0  0
   -5.0032    0.4071    0.0000 O   0  0
   -5.0022   -0.2529    0.0000 C   0  0
   -4.2892    1.6463    0.0000 C   0  0
   -5.0032    2.0604    0.0000 O   0  0
   -5.0023    2.7204    0.0000 C   0  0
   -3.5747    2.0588    0.0000 C   0  0
   -3.5731    2.8843    0.0000 O   0  0
   -3.0010    3.2134    0.0000 C   0  0
   -2.8602    1.6463    0.0000 C   0  0
   -0.7144   -0.4125    0.0000 C   0  0
    0.0000   -0.8250    0.0000 C   0  0
   -0.0017   -1.6504    0.0000 O   0  0
   -0.4784   -1.9248    0.0000 H   0  0
  1  2  1  0
  2  3  1  0
  3  4  2  0
  4  5  1  0
  5  6  2  0
  6  7  1  0
  6 21  1  0
  7  8  2  0
  8  9  1  0
  9 10  2  0
 10 11  1  0
 11 12  1  0
 11 14  2  0
 12 13  1  0
 14 15  1  0
 14 17  1  0
 15 16  1  0
 17 18  1  0
 17 20  2  0
 18 19  1  0
 20  9  1  0
 21 22  2  0
 22  3  1  0
 22 23  1  0
 23 24  1  0
M  END
> <CMPD_CHEMBLID>
CHEMBL67

> <STANDARD_TYPE>
IC50

> <RELATION>
>

> <STANDARD_VALUE>
10000

> <STANDARD_UNITS>
nM

> <Molecular_Weight>
316.3484

$$$$

  SciTegic11272012012D

 35 39  0  0  0  0            999 V2000
   -0.2704   -2.1220    0.0000 C   0  0
    0.1713   -1.6316    0.0000 N   0  0
    0.9918   -1.7178    0.0000 N   0  0
    1.3273   -0.9641    0.0000 C   0  0
    2.1337   -0.7943    0.0000 C   0  0
    2.3386   -0.1669    0.0000 O   0  0
    2.6853   -1.4084    0.0000 N   0  0
    0.7144   -0.4125    0.0000 C   0  0
    0.7144    0.4125    0.0000 C   0  0
    0.0000    0.8250    0.0000 C   0  0
   -0.7144    0.4125    0.0000 C   0  0
   -1.4289    0.8250    0.0000 C   0  0
   -2.1434    0.4125    0.0000 N   0  0
   -2.1434   -0.4125    0.0000 C   0  0
   -2.8574   -0.8267    0.0000 N   0  0
   -2.8562   -1.6521    0.0000 C   0  0
   -3.5693   -2.0672    0.0000 C   0  0
   -3.5664   -2.8922    0.0000 C   0  0
   -2.8505   -3.3022    0.0000 N   0  0
   -2.1375   -2.8872    0.0000 C   0  0
   -2.1403   -2.0622    0.0000 C   0  0
   -2.8460   -4.1276    0.0000 C   0  0
   -3.4158   -4.4606    0.0000 O   0  0
   -2.1291   -4.5369    0.0000 C   0  0
   -2.1233   -5.3619    0.0000 C   0  0
   -1.4060   -5.7694    0.0000 C   0  0
   -0.6944   -5.3520    0.0000 C   0  0
   -0.7001   -4.5270    0.0000 C   0  0
   -1.4175   -4.1194    0.0000 C   0  0
   -1.4289   -0.8250    0.0000 N   0  0
   -0.7144   -0.4125    0.0000 C   0  0
    0.0000   -0.8250    0.0000 C   0  0
   -3.3342   -0.5525    0.0000 H   0  0
    3.2234   -1.2951    0.0000 H   0  0
    2.5145   -1.9313    0.0000 H   0  0
  1  2  1  0
  2  3  1  0
  3  4  2  0
  4  5  1  0
  4  8  1  0
  5  6  2  0
  5  7  1  0
  7 34  1  0
  7 35  1  0
  8  9  1  0
  9 10  1  0
 10 11  1  0
 11 12  2  0
 12 13  1  0
 13 14  2  0
 14 15  1  0
 14 30  1  0
 15 16  1  0
 15 33  1  0
 16 17  1  0
 17 18  1  0
 18 19  1  0
 19 20  1  0
 19 22  1  0
 20 21  1  0
 21 16  1  0
 22 23  2  0
 22 24  1  0
 24 25  2  0
 25 26  1  0
 26 27  2  0
 27 28  1  0
 28 29  2  0
 29 24  1  0
 30 31  2  0
 31 11  1  0
 31 32  1  0
 32  2  1  0
 32  8  2  0
M  END
> <CMPD_CHEMBLID>
CHEMBL599428

> <STANDARD_TYPE>
IC50

> <RELATION>
>

> <STANDARD_VALUE>
10000

> <STANDARD_UNITS>
nM

> <Molecular_Weight>
431.4903

$$$$

  SciTegic11272012012D

 37 40  0  0  0  0            999 V2000
    0.1030   -1.9207    0.0000 N   0  0
    0.8853   -2.1842    0.0000 C   0  0
    1.0154   -2.8312    0.0000 O   0  0
    1.5039   -1.6398    0.0000 C   0  0
    2.3105   -1.8126    0.0000 C   0  0
    2.6461   -2.5653    0.0000 N   0  0
    2.7242   -1.0988    0.0000 C   0  0
    2.1731   -0.4848    0.0000 N   0  0
    1.4293   -0.8252    0.0000 C   0  0
    0.7144   -0.4125    0.0000 C   0  0
    0.7144    0.4125    0.0000 C   0  0
    0.0000    0.8250    0.0000 C   0  0
   -0.7144    0.4125    0.0000 C   0  0
   -1.4302    0.8237    0.0000 O   0  0
   -2.1444    0.4100    0.0000 C   0  0
   -2.8604    0.8200    0.0000 C   0  0
   -3.5735    0.4050    0.0000 C   0  0
   -3.5706   -0.4200    0.0000 C   0  0
   -2.8547   -0.8300    0.0000 C   0  0
   -2.1416   -0.4150    0.0000 C   0  0
   -0.7144   -0.4125    0.0000 C   0  0
    0.0000   -0.8250    0.0000 C   0  0
    3.5436   -1.0122    0.0000 C   0  0
    3.9317   -1.5461    0.0000 O   0  0
    3.8795   -0.2582    0.0000 C   0  0
    4.6999   -0.1703    0.0000 C   0  0
    5.0888   -0.7036    0.0000 F   0  0
    5.0340    0.5839    0.0000 C   0  0
    4.5478    1.2505    0.0000 C   0  0
    3.7275    1.1627    0.0000 C   0  0
    3.3933    0.4084    0.0000 C   0  0
    2.7371    0.3381    0.0000 F   0  0
    2.2851    0.0537    0.0000 H   0  0
    3.1931   -2.6228    0.0000 H   0  0
    2.3229   -3.0103    0.0000 H   0  0
   -0.3099   -2.2840    0.0000 H   0  0
   -0.0054   -1.3815    0.0000 H   0  0
  1  2  1  0
  1 36  1  0
  1 37  1  0
  2  3  2  0
  2  4  1  0
  4  5  1  0
  5  6  1  0
  5  7  2  0
  6 34  1  0
  6 35  1  0
  7  8  1  0
  7 23  1  0
  8  9  1  0
  8 33  1  0
  9  4  2  0
  9 10  1  0
 10 11  2  0
 11 12  1  0
 12 13  2  0
 13 14  1  0
 13 21  1  0
 14 15  1  0
 15 16  2  0
 16 17  1  0
 17 18  2  0
 18 19  1  0
 19 20  2  0
 20 15  1  0
 21 22  2  0
 22 10  1  0
 23 24  2  0
 23 25  1  0
 25 26  2  0
 26 27  1  0
 26 28  1  0
 28 29  2  0
 29 30  1  0
 30 31  2  0
 31 25  1  0
 31 32  1  0
M  END
> <CMPD_CHEMBLID>
CHEMBL589630

> <STANDARD_TYPE>
IC50

> <RELATION>
>

> <STANDARD_VALUE>
10000

> <STANDARD_UNITS>
nM

> <Molecular_Weight>
433.40689

$$$$

  SciTegic11272012012D

 26 27  0  0  0  0            999 V2000
    0.0949   -5.9969    0.0000 N   0  0
   -0.7131   -5.8282    0.0000 C   0  0
   -0.9692   -5.0435    0.0000 C   0  0
   -0.4180   -4.4290    0.0000 C   0  0
   -0.6741   -3.6443    0.0000 C   0  0
   -0.1229   -3.0298    0.0000 N   0  0
   -0.3790   -2.2450    0.0000 C   0  0
    0.1713   -1.6316    0.0000 C   0  0
    0.9918   -1.7178    0.0000 C   0  0
    1.3218   -2.2894    0.0000 O   0  0
    1.3273   -0.9642    0.0000 N   0  0
    0.7145   -0.4125    0.0000 C   0  0
    0.7145    0.4125    0.0000 C   0  0
    0.0000    0.8250    0.0000 C   0  0
   -0.7145    0.4125    0.0000 C   0  0
   -1.2861    0.7425    0.0000 Br  0  0
   -0.7145   -0.4125    0.0000 C   0  0
    0.0000   -0.8250    0.0000 C   0  0
   -1.2644   -6.4427    0.0000 C   0  0
   -1.9101   -6.3065    0.0000 O   0  0
   -1.0083   -7.2275    0.0000 O   0  0
   -1.3756   -7.6369    0.0000 H   0  0
    1.8654   -0.8498    0.0000 H   0  0
    0.4153   -3.1433    0.0000 H   0  0
    0.4617   -5.5871    0.0000 H   0  0
    0.2666   -6.5195    0.0000 H   0  0
  1  2  1  0
  1 25  1  0
  1 26  1  0
  2  3  1  0
  2 19  1  0
  3  4  1  0
  4  5  1  0
  5  6  1  0
  6  7  1  0
  6 24  1  0
  7  8  2  0
  8  9  1  0
  9 10  2  0
  9 11  1  0
 11 12  1  0
 11 23  1  0
 12 13  2  0
 13 14  1  0
 14 15  2  0
 15 16  1  0
 15 17  1  0
 17 18  2  0
 18  8  1  0
 18 12  1  0
 19 20  2  0
 19 21  1  0
 21 22  1  0
M  END
> <CMPD_CHEMBLID>
CHEMBL503236

> <STANDARD_TYPE>
IC50

> <RELATION>
>

> <STANDARD_VALUE>
10000

> <STANDARD_UNITS>
nM

> <Molecular_Weight>
354.19914

$$$$

  SciTegic11272012012D

 34 37  0  0  0  0            999 V2000
   -4.8330   -4.5080    0.0000 C   0  0
   -4.3547   -4.0532    0.0000 C   0  0
   -4.5097   -3.4116    0.0000 C   0  0
   -4.9878   -3.8665    0.0000 C   0  0
   -3.5628   -4.2863    0.0000 O   0  0
   -2.9647   -3.7175    0.0000 C   0  0
   -3.1196   -3.0759    0.0000 O   0  0
   -2.1728   -3.9506    0.0000 N   0  0
   -1.5746   -3.3817    0.0000 C   0  0
   -0.7828   -3.6136    0.0000 C   0  0
   -0.1861   -3.0438    0.0000 C   0  0
   -0.3810   -2.2450    0.0000 C   0  0
   -1.1730   -2.0103    0.0000 C   0  0
   -1.7697   -2.5801    0.0000 C   0  0
    0.1713   -1.6316    0.0000 C   0  0
    0.9918   -1.7179    0.0000 N   0  0
    1.3273   -0.9642    0.0000 N   0  0
    0.7145   -0.4125    0.0000 C   0  0
    0.7145    0.4125    0.0000 N   0  0
    0.0000    0.8250    0.0000 C   0  0
   -0.7145    0.4125    0.0000 N   0  0
   -0.7145   -0.4125    0.0000 C   0  0
   -1.4302   -0.8238    0.0000 N   0  0
   -2.1445   -0.4100    0.0000 C   0  0
   -2.8604   -0.8200    0.0000 C   0  0
   -3.5735   -0.4051    0.0000 C   0  0
   -3.5707    0.4199    0.0000 C   0  0
   -2.8547    0.8300    0.0000 C   0  0
   -2.8525    1.4900    0.0000 Cl  0  0
   -2.1417    0.4150    0.0000 C   0  0
    0.0000   -0.8250    0.0000 C   0  0
   -1.4312   -1.3738    0.0000 H   0  0
    1.2668   -2.1942    0.0000 H   0  0
   -2.0436   -4.4852    0.0000 H   0  0
  1  2  1  0
  2  3  1  0
  2  4  1  0
  2  5  1  0
  5  6  1  0
  6  7  2  0
  6  8  1  0
  8  9  1  0
  8 34  1  0
  9 10  2  0
 10 11  1  0
 11 12  2  0
 12 13  1  0
 12 15  1  0
 13 14  2  0
 14  9  1  0
 15 16  1  0
 16 17  1  0
 16 33  1  0
 17 18  2  0
 18 19  1  0
 19 20  2  0
 20 21  1  0
 21 22  2  0
 22 23  1  0
 22 31  1  0
 23 24  1  0
 23 32  1  0
 24 25  2  0
 25 26  1  0
 26 27  2  0
 27 28  1  0
 28 29  1  0
 28 30  2  0
 30 24  1  0
 31 15  2  0
 31 18  1  0
M  END
> <CMPD_CHEMBLID>
CHEMBL420885

> <STANDARD_TYPE>
IC50

> <RELATION>
>

> <STANDARD_VALUE>
10000

> <STANDARD_UNITS>
nM

> <Molecular_Weight>
436.89414

$$$$

  SciTegic11272012012D

 30 33  0  0  0  0            999 V2000
    1.9869   -4.4606    0.0000 C   0  0
    1.4171   -4.1276    0.0000 C   0  0
    0.8439   -4.4548    0.0000 O   0  0
    1.4216   -3.3022    0.0000 N   0  0
    2.1375   -2.8922    0.0000 C   0  0
    2.1403   -2.0672    0.0000 C   0  0
    1.4273   -1.6521    0.0000 C   0  0
    0.7114   -2.0622    0.0000 C   0  0
    0.7086   -2.8872    0.0000 C   0  0
    1.4285   -0.8267    0.0000 N   0  0
    0.7144   -0.4125    0.0000 C   0  0
    0.7144    0.4125    0.0000 N   0  0
    0.0000    0.8250    0.0000 C   0  0
   -0.7144    0.4125    0.0000 C   0  0
   -1.4290    0.8250    0.0000 C   0  0
   -2.1434    0.4125    0.0000 C   0  0
   -2.1434   -0.4125    0.0000 C   0  0
   -2.7563   -0.9641    0.0000 C   0  0
   -2.4207   -1.7178    0.0000 N   0  0
   -1.6002   -1.6316    0.0000 N   0  0
   -1.1586   -2.1220    0.0000 C   0  0
   -1.4290   -0.8250    0.0000 C   0  0
   -0.7144   -0.4125    0.0000 C   0  0
    0.0000   -0.8250    0.0000 N   0  0
   -3.5626   -0.7944    0.0000 C   0  0
   -3.7676   -0.1670    0.0000 O   0  0
   -4.1142   -1.4084    0.0000 N   0  0
   -4.6524   -1.2951    0.0000 H   0  0
   -3.9434   -1.9313    0.0000 H   0  0
    1.9053   -0.5525    0.0000 H   0  0
  1  2  1  0
  2  3  2  0
  2  4  1  0
  4  5  1  0
  5  6  1  0
  6  7  1  0
  7  8  1  0
  7 10  1  0
  8  9  1  0
  9  4  1  0
 10 11  1  0
 10 30  1  0
 11 12  2  0
 12 13  1  0
 13 14  2  0
 14 15  1  0
 15 16  1  0
 16 17  1  0
 17 18  1  0
 18 19  2  0
 18 25  1  0
 19 20  1  0
 20 21  1  0
 20 22  1  0
 22 17  2  0
 22 23  1  0
 23 14  1  0
 23 24  2  0
 24 11  1  0
 25 26  2  0
 25 27  1  0
 27 28  1  0
 27 29  1  0
M  END
> <CMPD_CHEMBLID>
CHEMBL599224

> <STANDARD_TYPE>
IC50

> <RELATION>
>

> <STANDARD_VALUE>
10000

> <STANDARD_UNITS>
nM

> <Molecular_Weight>
369.42092

$$$$

  SciTegic11272012012D

 39 43  0  0  0  0            999 V2000
    2.7675    2.2486    0.0000 C   0  0
    2.5623    1.6213    0.0000 N   0  0
    1.7547    1.4507    0.0000 C   0  0
    1.3139    1.9418    0.0000 O   0  0
    1.4986    0.6674    0.0000 C   0  0
    1.9836    0.0000    0.0000 N   0  0
    1.4986   -0.6674    0.0000 N   0  0
    1.7025   -1.2951    0.0000 C   0  0
    0.7145   -0.4125    0.0000 C   0  0
    0.7145    0.4125    0.0000 C   0  0
    0.0000    0.8250    0.0000 C   0  0
   -0.7145    0.4125    0.0000 C   0  0
   -0.7145   -0.4125    0.0000 C   0  0
   -1.4290   -0.8250    0.0000 C   0  0
   -1.4290   -1.6500    0.0000 N   0  0
   -0.7145   -2.0625    0.0000 C   0  0
   -0.7127   -2.8879    0.0000 N   0  0
    0.0027   -3.2997    0.0000 C   0  0
    0.0056   -4.1247    0.0000 C   0  0
    0.7215   -4.5347    0.0000 C   0  0
    1.4345   -4.1197    0.0000 N   0  0
    1.4317   -3.2947    0.0000 C   0  0
    0.7158   -2.8847    0.0000 C   0  0
    2.1517   -4.5285    0.0000 C   0  0
    2.1551   -5.1885    0.0000 O   0  0
    2.8645   -4.1123    0.0000 C   0  0
    3.5819   -4.5198    0.0000 C   0  0
    4.2935   -4.1023    0.0000 C   0  0
    4.2877   -3.2774    0.0000 N   0  0
    3.5704   -2.8698    0.0000 C   0  0
    2.8588   -3.2873    0.0000 C   0  0
    4.9997   -2.8597    0.0000 S   0  0
    5.5738   -3.1854    0.0000 O   0  0
    4.9949   -2.1997    0.0000 O   0  0
    5.5689   -2.5255    0.0000 C   0  0
    0.0000   -1.6500    0.0000 N   0  0
    0.0000   -0.8250    0.0000 C   0  0
   -1.1886   -3.1638    0.0000 H   0  0
    2.9297    1.2120    0.0000 H   0  0
  1  2  1  0
  2  3  1  0
  2 39  1  0
  3  4  2  0
  3  5  1  0
  5  6  2  0
  6  7  1  0
  7  8  1  0
  7  9  1  0
  9 10  2  0
 10  5  1  0
 10 11  1  0
 11 12  1  0
 12 13  1  0
 13 14  2  0
 14 15  1  0
 15 16  2  0
 16 17  1  0
 16 36  1  0
 17 18  1  0
 17 38  1  0
 18 19  1  0
 19 20  1  0
 20 21  1  0
 21 22  1  0
 21 24  1  0
 22 23  1  0
 23 18  1  0
 24 25  2  0
 24 26  1  0
 26 27  1  0
 27 28  1  0
 28 29  1  0
 29 30  1  0
 29 32  1  0
 30 31  1  0
 31 26  1  0
 32 33  2  0
 32 34  2  0
 32 35  1  0
 36 37  2  0
 37  9  1  0
 37 13  1  0
M  END
> <CMPD_CHEMBLID>
CHEMBL597754

> <STANDARD_TYPE>
IC50

> <RELATION>
>

> <STANDARD_VALUE>
10000

> <STANDARD_UNITS>
nM

> <Molecular_Weight>
530.64296

$$$$

  SciTegic11272012012D

 27 28  0  0  0  0            999 V2000
   -2.0717   -6.2705    0.0000 N   0  0
   -1.2643   -6.4426    0.0000 C   0  0
   -0.7131   -5.8281    0.0000 C   0  0
   -0.9692   -5.0434    0.0000 C   0  0
   -0.4180   -4.4289    0.0000 C   0  0
   -0.6741   -3.6442    0.0000 C   0  0
   -0.1229   -3.0297    0.0000 N   0  0
   -0.3789   -2.2450    0.0000 C   0  0
    0.1713   -1.6316    0.0000 C   0  0
    0.9918   -1.7178    0.0000 C   0  0
    1.3218   -2.2894    0.0000 O   0  0
    1.3273   -0.9641    0.0000 N   0  0
    0.7144   -0.4125    0.0000 C   0  0
    0.7144    0.4125    0.0000 C   0  0
    0.0000    0.8250    0.0000 C   0  0
   -0.7144    0.4125    0.0000 C   0  0
   -1.2861    0.7425    0.0000 Br  0  0
   -0.7144   -0.4125    0.0000 C   0  0
    0.0000   -0.8250    0.0000 C   0  0
   -1.0083   -7.2273    0.0000 C   0  0
   -0.3625   -7.3636    0.0000 O   0  0
   -1.5595   -7.8418    0.0000 O   0  0
   -1.3889   -8.3647    0.0000 H   0  0
    1.8653   -0.8497    0.0000 H   0  0
    0.4153   -3.1433    0.0000 H   0  0
   -2.2417   -5.7475    0.0000 H   0  0
   -2.4397   -6.6793    0.0000 H   0  0
  1  2  1  0
  1 26  1  0
  1 27  1  0
  2  3  1  0
  2 20  1  0
  3  4  1  0
  4  5  1  0
  5  6  1  0
  6  7  1  0
  7  8  1  0
  7 25  1  0
  8  9  2  0
  9 10  1  0
 10 11  2  0
 10 12  1  0
 12 13  1  0
 12 24  1  0
 13 14  2  0
 14 15  1  0
 15 16  2  0
 16 17  1  0
 16 18  1  0
 18 19  2  0
 19  9  1  0
 19 13  1  0
 20 21  2  0
 20 22  1  0
 22 23  1  0
M  END
> <CMPD_CHEMBLID>
CHEMBL458441

> <STANDARD_TYPE>
IC50

> <RELATION>
>

> <STANDARD_VALUE>
10000

> <STANDARD_UNITS>
nM

> <Molecular_Weight>
368.22572

$$$$

  SciTegic11272012012D

 26 27  0  0  0  0            999 V2000
   -2.0717   -6.2705    0.0000 N   0  0
   -1.2643   -6.4426    0.0000 C   0  0
   -0.7131   -5.8281    0.0000 C   0  0
   -0.9692   -5.0434    0.0000 C   0  0
   -0.4180   -4.4289    0.0000 C   0  0
   -0.6741   -3.6442    0.0000 C   0  0
   -0.1229   -3.0297    0.0000 N   0  0
   -0.3789   -2.2450    0.0000 C   0  0
    0.1713   -1.6316    0.0000 C   0  0
    0.9918   -1.7178    0.0000 C   0  0
    1.3218   -2.2894    0.0000 O   0  0
    1.3273   -0.9641    0.0000 N   0  0
    0.7144   -0.4125    0.0000 C   0  0
    0.7144    0.4125    0.0000 C   0  0
    0.0000    0.8250    0.0000 C   0  0
   -0.7144    0.4125    0.0000 C   0  0
   -0.7144   -0.4125    0.0000 C   0  0
    0.0000   -0.8250    0.0000 C   0  0
   -1.0083   -7.2273    0.0000 C   0  0
   -0.3625   -7.3636    0.0000 O   0  0
   -1.5595   -7.8418    0.0000 O   0  0
   -1.3889   -8.3647    0.0000 H   0  0
    1.8653   -0.8497    0.0000 H   0  0
    0.4153   -3.1433    0.0000 H   0  0
   -2.2417   -5.7475    0.0000 H   0  0
   -2.4397   -6.6793    0.0000 H   0  0
  1  2  1  0
  1 25  1  0
  1 26  1  0
  2  3  1  0
  2 19  1  0
  3  4  1  0
  4  5  1  0
  5  6  1  0
  6  7  1  0
  7  8  1  0
  7 24  1  0
  8  9  2  0
  9 10  1  0
 10 11  2  0
 10 12  1  0
 12 13  1  0
 12 23  1  0
 13 14  2  0
 14 15  1  0
 15 16  2  0
 16 17  1  0
 17 18  2  0
 18  9  1  0
 18 13  1  0
 19 20  2  0
 19 21  1  0
 21 22  1  0
M  END
> <CMPD_CHEMBLID>
CHEMBL458440

> <STANDARD_TYPE>
IC50

> <RELATION>
>

> <STANDARD_VALUE>
10000

> <STANDARD_UNITS>
nM

> <Molecular_Weight>
289.32966

$$$$

  SciTegic11272012012D

 25 26  0  0  0  0            999 V2000
    0.0949   -5.9969    0.0000 N   0  0
   -0.7131   -5.8282    0.0000 C   0  0
   -0.9692   -5.0435    0.0000 C   0  0
   -0.4180   -4.4290    0.0000 C   0  0
   -0.6741   -3.6442    0.0000 C   0  0
   -0.1229   -3.0298    0.0000 N   0  0
   -0.3790   -2.2450    0.0000 C   0  0
    0.1713   -1.6316    0.0000 C   0  0
    0.9918   -1.7178    0.0000 C   0  0
    1.3218   -2.2894    0.0000 O   0  0
    1.3273   -0.9642    0.0000 N   0  0
    0.7145   -0.4125    0.0000 C   0  0
    0.7145    0.4125    0.0000 C   0  0
    0.0000    0.8250    0.0000 C   0  0
   -0.7145    0.4125    0.0000 C   0  0
   -0.7145   -0.4125    0.0000 C   0  0
    0.0000   -0.8250    0.0000 C   0  0
   -1.2644   -6.4427    0.0000 C   0  0
   -1.9101   -6.3064    0.0000 O   0  0
   -1.0083   -7.2274    0.0000 O   0  0
   -1.3756   -7.6368    0.0000 H   0  0
    1.8653   -0.8498    0.0000 H   0  0
    0.4153   -3.1433    0.0000 H   0  0
    0.4617   -5.5871    0.0000 H   0  0
    0.2666   -6.5195    0.0000 H   0  0
  1  2  1  0
  1 24  1  0
  1 25  1  0
  2  3  1  0
  2 18  1  0
  3  4  1  0
  4  5  1  0
  5  6  1  0
  6  7  1  0
  6 23  1  0
  7  8  2  0
  8  9  1  0
  9 10  2  0
  9 11  1  0
 11 12  1  0
 11 22  1  0
 12 13  2  0
 13 14  1  0
 14 15  2  0
 15 16  1  0
 16 17  2  0
 17  8  1  0
 17 12  1  0
 18 19  2  0
 18 20  1  0
 20 21  1  0
M  END
> <CMPD_CHEMBLID>
CHEMBL458352

> <STANDARD_TYPE>
IC50

> <RELATION>
>

> <STANDARD_VALUE>
10000

> <STANDARD_UNITS>
nM

> <Molecular_Weight>
275.30308

$$$$

  SciTegic11272012012D

 23 25  0  0  0  0            999 V2000
    3.5703   -2.0678    0.0000 O   0  0
    2.8570   -1.6525    0.0000 C   0  0
    2.8583   -0.8275    0.0000 C   0  0
    2.1445   -0.4139    0.0000 C   0  0
    1.4293   -0.8252    0.0000 C   0  0
    1.4281   -1.6502    0.0000 C   0  0
    2.1419   -2.0639    0.0000 C   0  0
    0.7144   -0.4125    0.0000 C   0  0
    0.7144    0.4125    0.0000 C   0  0
    0.0000    0.8250    0.0000 O   0  0
   -0.7144    0.4125    0.0000 C   0  0
   -1.4290    0.8250    0.0000 C   0  0
   -2.1434    0.4125    0.0000 C   0  0
   -2.8591    0.8237    0.0000 O   0  0
   -2.1434   -0.4125    0.0000 C   0  0
   -1.4290   -0.8250    0.0000 C   0  0
   -1.4306   -1.6504    0.0000 O   0  0
   -0.7144   -0.4125    0.0000 C   0  0
    0.0000   -0.8250    0.0000 C   0  0
    0.0000   -1.4850    0.0000 O   0  0
   -1.9073   -1.9248    0.0000 H   0  0
   -3.3350    0.5481    0.0000 H   0  0
    3.5687   -2.6178    0.0000 H   0  0
  1  2  1  0
  1 23  1  0
  2  3  2  0
  3  4  1  0
  4  5  2  0
  5  6  1  0
  5  8  1  0
  6  7  2  0
  7  2  1  0
  8  9  2  0
  9 10  1  0
 10 11  1  0
 11 12  2  0
 12 13  1  0
 13 14  1  0
 13 15  2  0
 14 22  1  0
 15 16  1  0
 16 17  1  0
 16 18  2  0
 17 21  1  0
 18 11  1  0
 18 19  1  0
 19  8  1  0
 19 20  2  0
M  END
> <CMPD_CHEMBLID>
CHEMBL44

> <STANDARD_TYPE>
IC50

> <RELATION>
=

> <STANDARD_VALUE>
10000

> <STANDARD_UNITS>
nM

> <Molecular_Weight>
270.2369

$$$$

  SciTegic11272012012D

 29 31  0  0  0  0            999 V2000
    1.2861   -0.7425    0.0000 Cl  0  0
    0.7145   -0.4125    0.0000 C   0  0
    0.7145    0.4125    0.0000 C   0  0
    0.0000    0.8250    0.0000 C   0  0
   -0.7145    0.4125    0.0000 C   0  0
   -0.7145   -0.4125    0.0000 C   0  0
   -1.2861   -0.7425    0.0000 Cl  0  0
    0.0000   -0.8250    0.0000 C   0  0
    0.0017   -1.6505    0.0000 C   0  0
   -0.5693   -1.9815    0.0000 O   0  0
    0.7172   -2.0622    0.0000 N   0  0
    0.7189   -2.8877    0.0000 C   0  0
    0.0514   -3.3606    0.0000 C   0  0
    0.3064   -4.1452    0.0000 N   0  0
    1.1314   -4.1452    0.0000 N   0  0
    1.3863   -3.3606    0.0000 C   0  0
    2.1686   -3.1016    0.0000 C   0  0
    2.3020   -2.4551    0.0000 O   0  0
    2.7855   -3.6500    0.0000 N   0  0
    3.5691   -3.3905    0.0000 C   0  0
    4.1865   -3.9378    0.0000 C   0  0
    4.9691   -3.6769    0.0000 C   0  0
    5.1345   -2.8686    0.0000 N   0  0
    4.5171   -2.3213    0.0000 C   0  0
    3.7345   -2.5822    0.0000 C   0  0
    5.6562   -2.6946    0.0000 H   0  0
    2.6743   -4.1887    0.0000 H   0  0
   -0.0169   -4.5902    0.0000 H   0  0
    1.1930   -1.7864    0.0000 H   0  0
  1  2  1  0
  2  3  2  0
  3  4  1  0
  4  5  2  0
  5  6  1  0
  6  7  1  0
  6  8  2  0
  8  2  1  0
  8  9  1  0
  9 10  2  0
  9 11  1  0
 11 12  1  0
 11 29  1  0
 12 13  2  0
 13 14  1  0
 14 15  1  0
 14 28  1  0
 15 16  2  0
 16 12  1  0
 16 17  1  0
 17 18  2  0
 17 19  1  0
 19 20  1  0
 19 27  1  0
 20 21  1  0
 21 22  1  0
 22 23  1  0
 23 24  1  0
 23 26  1  0
 24 25  1  0
 25 20  1  0
M  END
> <CMPD_CHEMBLID>
CHEMBL445813

> <STANDARD_TYPE>
IC50

> <RELATION>
>

> <STANDARD_VALUE>
10000

> <STANDARD_UNITS>
nM

> <Molecular_Weight>
382.24448

$$$$

  SciTegic11272012012D

 20 22  0  0  0  0            999 V2000
    1.4302   -0.8237    0.0000 N   0  0
    0.7145   -0.4125    0.0000 C   0  0
    0.7145    0.4125    0.0000 N   0  0
    0.0000    0.8250    0.0000 C   0  0
   -0.7145    0.4125    0.0000 N   0  0
   -0.7145   -0.4125    0.0000 C   0  0
    0.0000   -0.8250    0.0000 C   0  0
   -0.1713   -1.6316    0.0000 C   0  0
   -0.9918   -1.7178    0.0000 N   0  0
   -1.3273   -0.9642    0.0000 N   0  0
   -2.1337   -0.7943    0.0000 C   0  0
   -2.6853   -1.4085    0.0000 C   0  0
   -3.4929   -1.2396    0.0000 C   0  0
   -4.0429   -1.8545    0.0000 C   0  0
   -3.7854   -2.6383    0.0000 N   0  0
   -2.9779   -2.8072    0.0000 C   0  0
   -2.4278   -2.1923    0.0000 C   0  0
   -4.1521   -3.0483    0.0000 H   0  0
    1.9062   -0.5481    0.0000 H   0  0
    1.4312   -1.3738    0.0000 H   0  0
  1  2  1  0
  1 19  1  0
  1 20  1  0
  2  3  2  0
  3  4  1  0
  4  5  2  0
  5  6  1  0
  6  7  2  0
  7  2  1  0
  7  8  1  0
  8  9  2  0
  9 10  1  0
 10  6  1  0
 10 11  1  0
 11 12  1  0
 12 13  1  0
 13 14  1  0
 14 15  1  0
 15 16  1  0
 15 18  1  0
 16 17  1  0
 17 12  1  0
M  END
> <CMPD_CHEMBLID>
CHEMBL2030559

> <STANDARD_TYPE>
Ki

> <RELATION>
>

> <STANDARD_VALUE>
10000

> <STANDARD_UNITS>
nM

> <Molecular_Weight>
232.28494

$$$$

  SciTegic11272012012D

 35 38  0  0  0  0            999 V2000
    4.1430   -1.7398    0.0000 C   0  0
    3.5703   -2.0678    0.0000 C   0  0
    3.5683   -2.7278    0.0000 O   0  0
    2.8570   -1.6525    0.0000 N   0  0
    2.8583   -0.8275    0.0000 C   0  0
    2.1445   -0.4139    0.0000 C   0  0
    1.4293   -0.8252    0.0000 N   0  0
    1.4281   -1.6502    0.0000 C   0  0
    2.1419   -2.0639    0.0000 C   0  0
    0.7144   -0.4125    0.0000 C   0  0
    0.7144    0.4125    0.0000 C   0  0
    0.0000    0.8250    0.0000 N   0  0
   -0.7144    0.4125    0.0000 C   0  0
   -1.4290    0.8250    0.0000 C   0  0
   -2.1434    0.4125    0.0000 C   0  0
   -2.1434   -0.4125    0.0000 C   0  0
   -1.4290   -0.8250    0.0000 C   0  0
   -1.4306   -1.6504    0.0000 N   0  0
   -2.1461   -2.0622    0.0000 C   0  0
   -2.1477   -2.8876    0.0000 C   0  0
   -2.8623   -3.3002    0.0000 C   0  0
   -2.8623   -4.1252    0.0000 C   0  0
   -2.1478   -4.5377    0.0000 C   0  0
   -1.4333   -4.1252    0.0000 C   0  0
   -1.4333   -3.3002    0.0000 C   0  0
   -0.7176   -4.5365    0.0000 N   0  3
   -0.1465   -4.2057    0.0000 O   0  0
   -0.7165   -5.1965    0.0000 O   0  5
   -0.7144   -0.4125    0.0000 C   0  0
    0.0000   -0.8250    0.0000 C   0  0
   -2.8583    0.8252    0.0000 C   0  0
   -2.8587    1.4852    0.0000 F   0  0
   -3.4297    0.4950    0.0000 F   0  0
   -3.4300    1.1549    0.0000 F   0  0
   -0.9548   -1.9263    0.0000 H   0  0
  1  2  1  0
  2  3  2  0
  2  4  1  0
  4  5  1  0
  5  6  1  0
  6  7  1  0
  7  8  1  0
  7 10  1  0
  8  9  1  0
  9  4  1  0
 10 11  2  0
 11 12  1  0
 12 13  2  0
 13 14  1  0
 14 15  2  0
 15 16  1  0
 15 31  1  0
 16 17  2  0
 17 18  1  0
 17 29  1  0
 18 19  1  0
 18 35  1  0
 19 20  1  0
 20 21  2  0
 21 22  1  0
 22 23  2  0
 23 24  1  0
 24 25  2  0
 24 26  1  0
 25 20  1  0
 26 27  2  0
 26 28  1  0
 29 13  1  0
 29 30  2  0
 30 10  1  0
 31 32  1  0
 31 33  1  0
 31 34  1  0
M  CHG  2  26   1  28  -1
M  END
> <CMPD_CHEMBLID>
CHEMBL1766529

> <STANDARD_TYPE>
IC50

> <RELATION>
>

> <STANDARD_VALUE>
10000

> <STANDARD_UNITS>
nM

> <Molecular_Weight>
473.44769

$$$$

  SciTegic11272012012D

 21 24  0  0  0  0            999 V2000
    2.6366   -4.7822    0.0000 C   0  0
    2.1023   -4.3947    0.0000 C   0  0
    2.1873   -3.5736    0.0000 O   0  0
    1.5190   -3.0891    0.0000 C   0  0
    0.9164   -3.3583    0.0000 O   0  0
    1.6038   -2.2694    0.0000 C   0  0
    0.9918   -1.7178    0.0000 C   0  0
    1.3273   -0.9642    0.0000 C   0  0
    2.1468   -1.0499    0.0000 N   0  0
    2.3183   -1.8569    0.0000 C   0  0
    2.9213   -2.1253    0.0000 O   0  0
    0.7145   -0.4125    0.0000 C   0  0
    0.7145    0.4125    0.0000 C   0  0
    0.0000    0.8250    0.0000 C   0  0
   -0.7145    0.4125    0.0000 C   0  0
   -0.7145   -0.4125    0.0000 C   0  0
   -1.3797   -0.9441    0.0000 C   0  0
   -1.2935   -1.7646    0.0000 C   0  0
   -0.5398   -2.1002    0.0000 C   0  0
    0.1713   -1.6316    0.0000 C   0  0
    0.0000   -0.8250    0.0000 C   0  0
  1  2  1  0
  2  3  1  0
  3  4  1  0
  4  5  2  0
  4  6  1  0
  6  7  2  0
  7  8  1  0
  8  9  2  0
  8 12  1  0
  9 10  1  0
 10  6  1  0
 10 11  2  0
 12 13  2  0
 13 14  1  0
 14 15  2  0
 15 16  1  0
 16 17  2  0
 17 18  1  0
 18 19  2  0
 19 20  1  0
 20  7  1  0
 20 21  2  0
 21 12  1  0
 21 16  1  0
M  END
> <CMPD_CHEMBLID>
CHEMBL1784725

> <STANDARD_TYPE>
IC50

> <RELATION>
>

> <STANDARD_VALUE>
10000

> <STANDARD_UNITS>
nM

> <Molecular_Weight>
277.27414

$$$$

  SciTegic11272012012D

 41 46  0  0  0  0            999 V2000
    9.8627   -0.7205    0.0000 F   0  0
    9.2905   -0.3915    0.0000 C   0  0
    9.2890    0.4335    0.0000 C   0  0
    8.5738    0.8446    0.0000 C   0  0
    7.8600    0.4308    0.0000 C   0  0
    7.8616   -0.3942    0.0000 C   0  0
    8.5768   -0.8054    0.0000 C   0  0
    7.1438    0.8411    0.0000 N   0  0
    7.1409    1.6661    0.0000 C   0  0
    6.4251    2.0761    0.0000 C   0  0
    5.7120    1.6612    0.0000 C   0  0
    5.7149    0.8362    0.0000 C   0  0
    5.0006    0.4224    0.0000 C   0  0
    5.0017   -0.2376    0.0000 O   0  0
    4.2849    0.8337    0.0000 N   0  0
    3.5706    0.4200    0.0000 C   0  0
    2.8546    0.8300    0.0000 C   0  0
    2.1416    0.4150    0.0000 C   0  0
    2.1444   -0.4100    0.0000 C   0  0
    1.4302   -0.8237    0.0000 O   0  0
    0.7144   -0.4125    0.0000 C   0  0
    0.7144    0.4125    0.0000 N   0  0
    0.0000    0.8250    0.0000 C   0  0
   -0.7144    0.4125    0.0000 N   0  0
   -0.7144   -0.4125    0.0000 C   0  0
   -1.3273   -0.9641    0.0000 S   0  0
   -0.9918   -1.7178    0.0000 C   0  0
   -0.1713   -1.6316    0.0000 C   0  0
    0.3811   -2.2449    0.0000 C   0  0
    0.1862   -3.0437    0.0000 C   0  0
    0.7828   -3.6135    0.0000 C   0  0
    1.5746   -3.3816    0.0000 C   0  0
    1.7697   -2.5800    0.0000 C   0  0
    1.1730   -2.0103    0.0000 C   0  0
    0.0000   -0.8250    0.0000 C   0  0
    2.8604   -0.8200    0.0000 C   0  0
    2.8627   -1.4800    0.0000 F   0  0
    3.5734   -0.4050    0.0000 C   0  0
    6.4307    0.4261    0.0000 C   0  0
    6.4330   -0.2339    0.0000 O   0  0
    4.2839    1.3837    0.0000 H   0  0
  1  2  1  0
  2  3  2  0
  3  4  1  0
  4  5  2  0
  5  6  1  0
  5  8  1  0
  6  7  2  0
  7  2  1  0
  8  9  1  0
  9 10  2  0
 10 11  1  0
 11 12  2  0
 12 13  1  0
 12 39  1  0
 13 14  2  0
 13 15  1  0
 15 16  1  0
 15 41  1  0
 16 17  2  0
 17 18  1  0
 18 19  2  0
 19 20  1  0
 19 36  1  0
 20 21  1  0
 21 22  2  0
 22 23  1  0
 23 24  2  0
 24 25  1  0
 25 26  1  0
 26 27  1  0
 27 28  2  0
 28 29  1  0
 28 35  1  0
 29 30  2  0
 30 31  1  0
 31 32  2  0
 32 33  1  0
 33 34  2  0
 34 29  1  0
 35 21  1  0
 35 25  2  0
 36 37  1  0
 36 38  2  0
 38 16  1  0
 39  8  1  0
 39 40  2  0
M  END
> <CMPD_CHEMBLID>
CHEMBL1813632

> <STANDARD_TYPE>
IC50

> <RELATION>
>

> <STANDARD_VALUE>
10000

> <STANDARD_UNITS>
nM

> <Molecular_Weight>
552.55073

$$$$

  SciTegic11272012012D

 27 30  0  0  0  0            999 V2000
    1.2861   -0.7425    0.0000 O   0  5
    0.7144   -0.4125    0.0000 N   0  3
    0.7144    0.4125    0.0000 C   0  0
    0.0000    0.8250    0.0000 C   0  0
   -0.7144    0.4125    0.0000 C   0  0
   -1.4290    0.8250    0.0000 C   0  0
   -2.1434    0.4125    0.0000 C   0  0
   -2.1434   -0.4125    0.0000 C   0  0
   -1.4290   -0.8250    0.0000 N   0  0
   -0.7144   -0.4125    0.0000 C   0  0
    0.0000   -0.8250    0.0000 C   0  0
    0.0000   -1.6504    0.0000 C   0  0
   -0.7138   -2.0641    0.0000 C   0  0
   -1.2859   -1.7350    0.0000 Cl  0  0
   -0.7125   -2.8891    0.0000 C   0  0
    0.0026   -3.3005    0.0000 C   0  0
    0.7164   -2.8868    0.0000 C   0  0
    0.7151   -2.0618    0.0000 C   0  0
    1.2862   -1.7310    0.0000 Cl  0  0
   -1.4290    1.6504    0.0000 C   0  0
   -2.1441    2.0618    0.0000 C   0  0
   -2.1454    2.8868    0.0000 C   0  0
   -1.4316    3.3005    0.0000 C   0  0
   -1.4326    3.9605    0.0000 F   0  0
   -0.7164    2.8891    0.0000 C   0  0
   -0.7152    2.0641    0.0000 C   0  0
   -0.1431    1.7350    0.0000 Cl  0  0
  1  2  1  0
  2  3  2  0
  3  4  1  0
  4  5  2  0
  5  6  1  0
  6  7  2  0
  6 20  1  0
  7  8  1  0
  8  9  2  0
  9 10  1  0
 10  5  1  0
 10 11  2  0
 11  2  1  0
 11 12  1  0
 12 13  2  0
 13 14  1  0
 13 15  1  0
 15 16  2  0
 16 17  1  0
 17 18  2  0
 18 12  1  0
 18 19  1  0
 20 21  2  0
 21 22  1  0
 22 23  2  0
 23 24  1  0
 23 25  1  0
 25 26  2  0
 26 20  1  0
 26 27  1  0
M  CHG  2   1  -1   2   1
M  END
> <CMPD_CHEMBLID>
CHEMBL1916359

> <STANDARD_TYPE>
IC50

> <RELATION>
>

> <STANDARD_VALUE>
10000

> <STANDARD_UNITS>
nM

> <Molecular_Weight>
419.6636

$$$$

  SciTegic11272012012D

 37 40  0  0  0  0            999 V2000
    1.2861   -0.7425    0.0000 C   0  0
    0.7145   -0.4125    0.0000 N   0  0
    0.7145    0.4125    0.0000 C   0  0
    0.0000    0.8250    0.0000 C   0  0
   -0.7145    0.4125    0.0000 N   0  0
   -0.7145   -0.4125    0.0000 C   0  0
    0.0000   -0.8250    0.0000 C   0  0
   -1.4293    0.8252    0.0000 C   0  0
   -1.4307    1.6502    0.0000 C   0  0
   -2.1459    2.0617    0.0000 C   0  0
   -2.8597    1.6480    0.0000 C   0  0
   -3.5743    2.0610    0.0000 O   0  0
   -3.5745    2.8865    0.0000 C   0  0
   -4.1459    3.2168    0.0000 F   0  0
   -3.0028    3.2164    0.0000 F   0  0
   -3.5743    3.5465    0.0000 F   0  0
   -2.8583    0.8230    0.0000 C   0  0
   -3.5717    0.4076    0.0000 N   0  0
   -3.5692   -0.4178    0.0000 C   0  0
   -4.2816   -0.8340    0.0000 N   0  0
   -4.2774   -1.6590    0.0000 C   0  0
   -3.5609   -2.0679    0.0000 C   0  0
   -2.8485   -1.6518    0.0000 C   0  0
   -2.8527   -0.8268    0.0000 N   0  0
   -2.1316   -2.0609    0.0000 C   0  0
   -1.3906   -1.7144    0.0000 C   0  0
   -0.8345   -2.3238    0.0000 C   0  0
   -1.2422   -3.0410    0.0000 C   0  0
   -2.0503   -2.8748    0.0000 N   0  0
   -2.5405   -3.3168    0.0000 C   0  0
   -0.0153   -2.2340    0.0000 C   0  0
    0.2502   -1.6297    0.0000 O   0  0
    0.4733   -2.8993    0.0000 N   0  0
   -2.1432    0.4116    0.0000 C   0  0
    1.0200   -2.8393    0.0000 H   0  0
    0.2521   -3.4028    0.0000 H   0  0
   -4.0489    0.6810    0.0000 H   0  0
  1  2  1  0
  2  3  1  0
  3  4  1  0
  4  5  1  0
  5  6  1  0
  5  8  1  0
  6  7  1  0
  7  2  1  0
  8  9  2  0
  9 10  1  0
 10 11  2  0
 11 12  1  0
 11 17  1  0
 12 13  1  0
 13 14  1  0
 13 15  1  0
 13 16  1  0
 17 18  1  0
 17 34  2  0
 18 19  1  0
 18 37  1  0
 19 20  2  0
 20 21  1  0
 21 22  2  0
 22 23  1  0
 23 24  2  0
 23 25  1  0
 24 19  1  0
 25 26  2  0
 26 27  1  0
 27 28  2  0
 27 31  1  0
 28 29  1  0
 29 25  1  0
 29 30  1  0
 31 32  2  0
 31 33  1  0
 33 35  1  0
 33 36  1  0
 34  8  1  0
M  END
> <CMPD_CHEMBLID>
CHEMBL1933576

> <STANDARD_TYPE>
IC50

> <RELATION>
>

> <STANDARD_VALUE>
10000

> <STANDARD_UNITS>
nM

> <Molecular_Weight>
475.46687

$$$$

  SciTegic11272012012D

 38 42  0  0  0  0            999 V2000
   -2.5189   -0.8328    0.0000 C   0  0
   -2.2358   -1.4290    0.0000 N   0  0
   -2.7044   -2.1081    0.0000 C   0  0
   -2.3505   -2.8533    0.0000 C   0  0
   -1.5282   -2.9196    0.0000 N   0  0
   -1.0597   -2.2405    0.0000 C   0  0
   -1.4135   -1.4952    0.0000 C   0  0
   -1.1730   -3.6647    0.0000 C   0  0
   -1.6404   -4.3445    0.0000 C   0  0
   -1.2854   -5.0893    0.0000 C   0  0
   -0.4630   -5.1542    0.0000 C   0  0
   -0.1093   -5.9000    0.0000 O   0  0
   -0.5781   -6.5795    0.0000 C   0  0
   -0.2953   -7.1759    0.0000 F   0  0
   -1.2359   -6.5264    0.0000 F   0  0
   -0.9530   -7.1226    0.0000 F   0  0
    0.0045   -4.4744    0.0000 C   0  0
    0.8275   -4.5377    0.0000 N   0  0
    1.2943   -3.8568    0.0000 C   0  0
    2.1170   -3.9189    0.0000 N   0  0
    2.5820   -3.2375    0.0000 C   0  0
    2.2245   -2.4940    0.0000 C   0  0
    1.4045   -2.4327    0.0000 C   0  0
    0.9367   -3.1133    0.0000 N   0  0
    0.9918   -1.7178    0.0000 C   0  0
    1.3273   -0.9642    0.0000 C   0  0
    0.7145   -0.4125    0.0000 C   0  0
    0.7145    0.4125    0.0000 C   0  0
    1.2861    0.7425    0.0000 O   0  0
    0.0000    0.8250    0.0000 N   0  0
   -0.7145    0.4125    0.0000 C   0  0
   -0.7145   -0.4125    0.0000 C   0  0
    0.0000   -0.8250    0.0000 C   0  0
    0.1713   -1.6316    0.0000 N   0  0
   -0.2704   -2.1220    0.0000 C   0  0
   -0.3506   -3.7297    0.0000 C   0  0
    0.0000    1.3750    0.0000 H   0  0
    1.0650   -5.0337    0.0000 H   0  0
  1  2  1  0
  2  3  1  0
  3  4  1  0
  4  5  1  0
  5  6  1  0
  5  8  1  0
  6  7  1  0
  7  2  1  0
  8  9  2  0
  9 10  1  0
 10 11  2  0
 11 12  1  0
 11 17  1  0
 12 13  1  0
 13 14  1  0
 13 15  1  0
 13 16  1  0
 17 18  1  0
 17 36  2  0
 18 19  1  0
 18 38  1  0
 19 20  2  0
 20 21  1  0
 21 22  2  0
 22 23  1  0
 23 24  2  0
 23 25  1  0
 24 19  1  0
 25 26  2  0
 26 27  1  0
 27 28  1  0
 28 29  2  0
 28 30  1  0
 30 31  1  0
 30 37  1  0
 31 32  1  0
 32 33  1  0
 33 27  2  0
 33 34  1  0
 34 25  1  0
 34 35  1  0
 36  8  1  0
M  END
> <CMPD_CHEMBLID>
CHEMBL1933582

> <STANDARD_TYPE>
IC50

> <RELATION>
>

> <STANDARD_VALUE>
10000

> <STANDARD_UNITS>
nM

> <Molecular_Weight>
501.50415

$$$$

  SciTegic11272012012D

 26 29  0  0  0  0            999 V2000
    1.9729   -0.8269    0.0000 C   0  0
    1.3273   -0.9641    0.0000 N   0  0
    0.7144   -0.4125    0.0000 C   0  0
    0.7144    0.4125    0.0000 C   0  0
    1.2861    0.7425    0.0000 O   0  0
    0.0000    0.8250    0.0000 N   0  0
   -0.7144    0.4125    0.0000 C   0  0
   -1.1773    1.1269    0.0000 C   0  0
   -2.0023    1.1269    0.0000 C   0  0
   -2.4148    0.4125    0.0000 N   0  0
   -2.0023   -0.3020    0.0000 C   0  0
   -1.1773   -0.3020    0.0000 C   0  0
   -0.7144   -0.4125    0.0000 C   0  0
   -1.4293   -0.8252    0.0000 C   0  0
   -2.0009   -1.1552    0.0000 N   0  0
    0.0000   -0.8250    0.0000 C   0  0
    0.1713   -1.6316    0.0000 C   0  0
   -0.3136   -2.2983    0.0000 C   0  0
    0.0220   -3.0520    0.0000 C   0  0
    0.8425   -3.1382    0.0000 C   0  0
    1.1109   -3.7412    0.0000 Cl  0  0
    1.3274   -2.4708    0.0000 C   0  0
    1.9838   -2.5396    0.0000 Cl  0  0
    0.9918   -1.7178    0.0000 C   0  0
   -2.9648    0.4125    0.0000 H   0  0
    0.0000    1.3750    0.0000 H   0  0
  1  2  1  0
  2  3  1  0
  3  4  1  0
  4  5  2  0
  4  6  1  0
  6  7  1  0
  6 26  1  0
  7  8  1  0
  7 13  1  0
  8  9  1  0
  9 10  1  0
 10 11  1  0
 10 25  1  0
 11 12  1  0
 12  7  1  0
 13 14  1  0
 13 16  1  0
 14 15  3  0
 16  3  2  0
 16 17  1  0
 17 18  2  0
 18 19  1  0
 19 20  2  0
 20 21  1  0
 20 22  1  0
 22 23  1  0
 22 24  2  0
 24  2  1  0
 24 17  1  0
M  END
> <CMPD_CHEMBLID>
CHEMBL1945559

> <STANDARD_TYPE>
IC50

> <RELATION>
>

> <STANDARD_VALUE>
10000

> <STANDARD_UNITS>
nM

> <Molecular_Weight>
363.24114

$$$$

  SciTegic11272012012D

 32 36  0  0  0  0            999 V2000
    1.8786    0.9146    0.0000 N   0  0
    2.4288    0.2993    0.0000 C   0  0
    3.2360    0.4696    0.0000 N   0  0
    3.7872   -0.1443    0.0000 C   0  0
    3.5311   -0.9285    0.0000 N   0  0
    2.7239   -1.0989    0.0000 C   0  0
    2.3107   -1.8125    0.0000 S   0  0
    1.5040   -1.6398    0.0000 C   0  0
    1.4293   -0.8252    0.0000 C   0  0
    0.7144   -0.4125    0.0000 C   0  0
    0.7144    0.4125    0.0000 C   0  0
    0.0000    0.8250    0.0000 C   0  0
   -0.7144    0.4125    0.0000 C   0  0
   -1.4290    0.8250    0.0000 C   0  0
   -2.1434    0.4125    0.0000 C   0  0
   -2.1434   -0.4125    0.0000 C   0  0
   -1.4290   -0.8250    0.0000 C   0  0
   -0.7144   -0.4125    0.0000 C   0  0
    0.0000   -0.8250    0.0000 C   0  0
   -1.4307    1.6504    0.0000 C   0  0
   -0.8597    1.9814    0.0000 O   0  0
   -2.1461    2.0622    0.0000 N   0  0
   -2.1478    2.8876    0.0000 C   0  0
   -2.8623    3.3001    0.0000 C   0  0
   -2.8623    4.1251    0.0000 C   0  0
   -2.1479    4.5377    0.0000 C   0  0
   -1.4334    4.1252    0.0000 C   0  0
   -1.4334    3.3002    0.0000 C   0  0
    2.1727   -0.4850    0.0000 C   0  0
   -2.6220    1.7863    0.0000 H   0  0
    2.0501    1.4372    0.0000 H   0  0
    1.3402    0.8020    0.0000 H   0  0
  1  2  1  0
  1 31  1  0
  1 32  1  0
  2  3  2  0
  3  4  1  0
  4  5  2  0
  5  6  1  0
  6  7  1  0
  7  8  1  0
  8  9  2  0
  9 10  1  0
  9 29  1  0
 10 11  2  0
 11 12  1  0
 12 13  2  0
 13 14  1  0
 14 15  2  0
 14 20  1  0
 15 16  1  0
 16 17  2  0
 17 18  1  0
 18 13  1  0
 18 19  2  0
 19 10  1  0
 20 21  2  0
 20 22  1  0
 22 23  1  0
 22 30  1  0
 23 24  2  0
 24 25  1  0
 25 26  2  0
 26 27  1  0
 27 28  2  0
 28 23  1  0
 29  2  1  0
 29  6  2  0
M  END
> <CMPD_CHEMBLID>
CHEMBL3288526

> <STANDARD_TYPE>
IC50

> <RELATION>
>

> <STANDARD_VALUE>
10000

> <STANDARD_UNITS>
nM

> <Molecular_Weight>
396.46434

$$$$

  SciTegic11272012012D

 34 37  0  0  0  0            999 V2000
    1.2861   -0.7425    0.0000 C   0  0
    0.7144   -0.4125    0.0000 C   0  0
    0.7144    0.4125    0.0000 C   0  0
    0.0000    0.8250    0.0000 C   0  0
   -0.7144    0.4125    0.0000 C   0  0
   -1.4302    0.8237    0.0000 N   0  0
   -2.1444    0.4100    0.0000 C   0  0
   -2.1433   -0.2500    0.0000 O   0  0
   -2.8602    0.8213    0.0000 C   0  0
   -3.5747    0.4088    0.0000 C   0  0
   -4.2892    0.8213    0.0000 C   0  0
   -4.2892    1.6463    0.0000 C   0  0
   -5.0032    2.0604    0.0000 N   0  0
   -3.5747    2.0588    0.0000 C   0  0
   -2.8602    1.6463    0.0000 C   0  0
   -0.7144   -0.4125    0.0000 C   0  0
    0.0000   -0.8250    0.0000 C   0  0
   -0.0017   -1.6504    0.0000 N   0  0
   -0.7171   -2.0622    0.0000 C   0  0
   -0.7201   -2.8872    0.0000 N   0  0
   -1.4359   -3.2972    0.0000 C   0  0
   -2.1490   -2.8822    0.0000 C   0  0
   -2.1461   -2.0572    0.0000 C   0  0
   -1.4302   -1.6472    0.0000 N   0  0
   -2.8595   -1.6421    0.0000 C   0  0
   -3.5761   -2.0509    0.0000 C   0  0
   -4.2885   -1.6348    0.0000 C   0  0
   -4.2843   -0.8099    0.0000 C   0  0
   -3.5678   -0.4009    0.0000 N   0  0
   -2.8554   -0.8170    0.0000 C   0  0
    0.4742   -1.9263    0.0000 H   0  0
   -5.0025    2.6104    0.0000 H   0  0
   -5.4800    1.7862    0.0000 H   0  0
   -1.4312    1.3737    0.0000 H   0  0
  1  2  1  0
  2  3  2  0
  3  4  1  0
  4  5  2  0
  5  6  1  0
  5 16  1  0
  6  7  1  0
  6 34  1  0
  7  8  2  0
  7  9  1  0
  9 10  2  0
 10 11  1  0
 11 12  2  0
 12 13  1  0
 12 14  1  0
 13 32  1  0
 13 33  1  0
 14 15  2  0
 15  9  1  0
 16 17  2  0
 17  2  1  0
 17 18  1  0
 18 19  1  0
 18 31  1  0
 19 20  2  0
 20 21  1  0
 21 22  2  0
 22 23  1  0
 23 24  2  0
 23 25  1  0
 24 19  1  0
 25 26  2  0
 26 27  1  0
 27 28  2  0
 28 29  1  0
 29 30  2  0
 30 25  1  0
M  END
> <CMPD_CHEMBLID>
CHEMBL326753

> <STANDARD_TYPE>
IC50

> <RELATION>
>

> <STANDARD_VALUE>
10000

> <STANDARD_UNITS>
nM

> <Molecular_Weight>
396.4445

$$$$

  SciTegic11272012012D

 28 30  0  0  0  0            999 V2000
    3.4155   -2.2584    0.0000 C   0  0
    3.0264   -1.7253    0.0000 C   0  0
    3.2939   -1.1218    0.0000 C   0  0
    2.2056   -1.8128    0.0000 C   0  0
    1.7190   -1.1459    0.0000 C   0  0
    1.9864   -0.5425    0.0000 O   0  0
    0.8983   -1.2334    0.0000 N   0  0
    0.4125   -0.5678    0.0000 C   0  0
    0.6674    0.2169    0.0000 N   0  0
    0.0000    0.7018    0.0000 N   0  0
   -0.6674    0.2169    0.0000 C   0  0
   -0.4125   -0.5678    0.0000 C   0  0
   -1.0788   -1.0523    0.0000 C   0  0
   -1.7463   -0.5674    0.0000 N   0  0
   -2.5295   -0.8237    0.0000 C   0  0
   -3.0207   -0.3829    0.0000 O   0  0
   -2.6999   -1.6314    0.0000 C   0  0
   -3.4837   -1.8891    0.0000 C   0  0
   -3.6524   -2.6967    0.0000 C   0  0
   -3.0373   -3.2466    0.0000 N   0  0
   -3.1723   -3.8926    0.0000 C   0  0
   -2.2536   -2.9889    0.0000 C   0  0
   -2.0849   -2.1813    0.0000 C   0  0
   -1.4913    0.2172    0.0000 C   0  0
   -1.2137    0.8160    0.0000 C   0  0
   -2.1467    0.1387    0.0000 C   0  0
    0.0000    1.2518    0.0000 H   0  0
    0.6754   -1.7363    0.0000 H   0  0
  1  2  1  0
  2  3  1  0
  2  4  1  0
  4  5  1  0
  5  6  2  0
  5  7  1  0
  7  8  1  0
  7 28  1  0
  8  9  2  0
  9 10  1  0
 10 11  1  0
 10 27  1  0
 11 12  2  0
 12  8  1  0
 12 13  1  0
 13 14  1  0
 14 15  1  0
 14 24  1  0
 15 16  2  0
 15 17  1  0
 17 18  1  0
 18 19  1  0
 19 20  1  0
 20 21  1  0
 20 22  1  0
 22 23  1  0
 23 17  1  0
 24 11  1  0
 24 25  1  0
 24 26  1  0
M  END
> <CMPD_CHEMBLID>
CHEMBL1230607

> <STANDARD_TYPE>
IC50

> <RELATION>
>

> <STANDARD_VALUE>
10000

> <STANDARD_UNITS>
nM

> <Molecular_Weight>
361.48174

$$$$

  SciTegic11272012012D

 35 39  0  0  0  0            999 V2000
    4.1410    0.7520    0.0000 F   0  0
    3.5706    0.4200    0.0000 C   0  0
    3.5734   -0.4050    0.0000 C   0  0
    2.8604   -0.8200    0.0000 C   0  0
    2.1444   -0.4100    0.0000 C   0  0
    1.4302   -0.8237    0.0000 N   0  0
    0.7144   -0.4125    0.0000 C   0  0
    0.7144    0.4125    0.0000 N   0  0
    0.0000    0.8250    0.0000 C   0  0
   -0.7144    0.4125    0.0000 N   0  0
   -0.7144   -0.4125    0.0000 C   0  0
   -1.3273   -0.9641    0.0000 S   0  0
   -0.9918   -1.7178    0.0000 C   0  0
   -1.4023   -2.4323    0.0000 N   0  0
   -0.9885   -3.1465    0.0000 C   0  0
   -0.3285   -3.1454    0.0000 O   0  0
   -1.3997   -3.8623    0.0000 C   0  0
   -0.9860   -4.5765    0.0000 C   0  0
   -1.3973   -5.2922    0.0000 C   0  0
   -0.9835   -6.0065    0.0000 N   0  0
   -0.3445   -6.3873    0.0000 C   0  0
   -0.3136   -7.1063    0.0000 C   0  0
   -0.9170   -7.7824    0.0000 C   0  0
   -1.6043   -7.3917    0.0000 C   0  0
   -0.9696   -6.7719    0.0000 C   0  0
    0.0046   -7.0195    0.0000 C   0  0
    0.3079   -6.4334    0.0000 O   0  0
    0.4955   -7.4383    0.0000 C   0  0
   -0.1713   -1.6316    0.0000 C   0  0
    0.0000   -0.8250    0.0000 C   0  0
    2.1416    0.4150    0.0000 C   0  0
    2.8546    0.8300    0.0000 C   0  0
    2.8524    1.4900    0.0000 Cl  0  0
   -1.9523   -2.4332    0.0000 H   0  0
    1.4311   -1.3737    0.0000 H   0  0
  1  2  1  0
  2  3  2  0
  3  4  1  0
  4  5  2  0
  5  6  1  0
  5 31  1  0
  6  7  1  0
  6 35  1  0
  7  8  2  0
  8  9  1  0
  9 10  2  0
 10 11  1  0
 11 12  1  0
 12 13  1  0
 13 14  1  0
 13 29  2  0
 14 15  1  0
 14 34  1  0
 15 16  2  0
 15 17  1  0
 17 18  2  0
 18 19  1  0
 19 20  1  0
 20 21  1  0
 21 22  1  0
 22 23  1  0
 23 24  1  0
 24 25  1  0
 25 20  1  0
 25 26  1  0
 26 27  2  0
 26 28  1  0
 28 22  1  0
 29 30  1  0
 30  7  1  0
 30 11  2  0
 31 32  2  0
 32  2  1  0
 32 33  1  0
M  END
> <CMPD_CHEMBLID>
CHEMBL3233785

> <STANDARD_TYPE>
IC50

> <RELATION>
>

> <STANDARD_VALUE>
10000

> <STANDARD_UNITS>
nM

> <Molecular_Weight>
485.96154

$$$$

  SciTegic11272012012D

 25 27  0  0  0  0            999 V2000
    4.1410    0.7520    0.0000 F   0  0
    3.5706    0.4200    0.0000 C   0  0
    3.5735   -0.4050    0.0000 C   0  0
    2.8604   -0.8200    0.0000 C   0  0
    2.1444   -0.4100    0.0000 C   0  0
    1.4302   -0.8237    0.0000 N   0  0
    0.7144   -0.4125    0.0000 C   0  0
    0.7144    0.4125    0.0000 N   0  0
    0.0000    0.8250    0.0000 C   0  0
   -0.7144    0.4125    0.0000 N   0  0
   -0.7144   -0.4125    0.0000 C   0  0
   -1.3273   -0.9641    0.0000 S   0  0
   -0.9918   -1.7178    0.0000 C   0  0
   -1.4023   -2.4323    0.0000 N   0  0
   -0.9885   -3.1465    0.0000 C   0  0
   -0.3285   -3.1454    0.0000 O   0  0
   -1.3998   -3.8623    0.0000 C   0  0
   -1.0689   -4.4334    0.0000 C   0  0
   -0.1713   -1.6316    0.0000 C   0  0
    0.0000   -0.8250    0.0000 C   0  0
    2.1416    0.4150    0.0000 C   0  0
    2.8547    0.8300    0.0000 C   0  0
    2.8524    1.4900    0.0000 Cl  0  0
   -1.9523   -2.4333    0.0000 H   0  0
    1.4312   -1.3737    0.0000 H   0  0
  1  2  1  0
  2  3  2  0
  3  4  1  0
  4  5  2  0
  5  6  1  0
  5 21  1  0
  6  7  1  0
  6 25  1  0
  7  8  2  0
  8  9  1  0
  9 10  2  0
 10 11  1  0
 11 12  1  0
 12 13  1  0
 13 14  1  0
 13 19  2  0
 14 15  1  0
 14 24  1  0
 15 16  2  0
 15 17  1  0
 17 18  2  0
 19 20  1  0
 20  7  1  0
 20 11  2  0
 21 22  2  0
 22  2  1  0
 22 23  1  0
M  END
> <CMPD_CHEMBLID>
CHEMBL3233767

> <STANDARD_TYPE>
IC50

> <RELATION>
>

> <STANDARD_VALUE>
10000

> <STANDARD_UNITS>
nM

> <Molecular_Weight>
348.7825

$$$$

  SciTegic11272012012D

 39 43  0  0  0  0            999 V2000
    4.1410    0.7520    0.0000 F   0  0
    3.5706    0.4200    0.0000 C   0  0
    3.5735   -0.4050    0.0000 C   0  0
    2.8604   -0.8200    0.0000 C   0  0
    2.1444   -0.4100    0.0000 C   0  0
    1.4302   -0.8237    0.0000 N   0  0
    0.7144   -0.4125    0.0000 C   0  0
    0.7144    0.4125    0.0000 N   0  0
    0.0000    0.8250    0.0000 C   0  0
   -0.7144    0.4125    0.0000 N   0  0
   -0.7144   -0.4125    0.0000 C   0  0
   -1.4290   -0.8250    0.0000 C   0  0
   -1.4290   -1.6500    0.0000 C   0  0
   -2.1447   -2.0613    0.0000 O   0  0
   -2.8590   -1.6475    0.0000 C   0  0
   -3.6034   -1.9865    0.0000 C   0  0
   -4.1533   -1.3715    0.0000 C   0  0
   -3.7383   -0.6585    0.0000 O   0  0
   -2.9319   -0.8328    0.0000 C   0  0
   -0.7144   -2.0625    0.0000 C   0  0
   -0.7127   -2.8879    0.0000 N   0  0
    0.0027   -3.2997    0.0000 C   0  0
    0.5737   -2.9687    0.0000 O   0  0
    0.0044   -4.1251    0.0000 N   0  0
    0.7198   -4.5368    0.0000 C   0  0
    0.7215   -5.3623    0.0000 C   0  0
    1.4370   -5.7740    0.0000 N   0  0
    1.5157   -6.5882    0.0000 C   0  0
    2.3233   -6.7569    0.0000 C   0  0
    2.7332   -6.0410    0.0000 C   0  0
    2.1791   -5.4298    0.0000 C   0  0
    0.0000   -1.6500    0.0000 C   0  0
    0.0000   -0.8250    0.0000 C   0  0
    2.1416    0.4150    0.0000 C   0  0
    2.8547    0.8300    0.0000 C   0  0
    2.8524    1.4900    0.0000 Cl  0  0
   -0.4715   -4.4009    0.0000 H   0  0
   -1.1886   -3.1638    0.0000 H   0  0
    1.4312   -1.3737    0.0000 H   0  0
  1  2  1  0
  2  3  2  0
  3  4  1  0
  4  5  2  0
  5  6  1  0
  5 34  1  0
  6  7  1  0
  6 39  1  0
  7  8  2  0
  8  9  1  0
  9 10  2  0
 10 11  1  0
 11 12  2  0
 12 13  1  0
 13 14  1  0
 13 20  2  0
 14 15  1  0
 15 16  1  0
 16 17  1  0
 17 18  1  0
 18 19  1  0
 19 15  1  0
 20 21  1  0
 20 32  1  0
 21 22  1  0
 21 38  1  0
 22 23  2  0
 22 24  1  0
 24 25  1  0
 24 37  1  0
 25 26  1  0
 26 27  1  0
 27 28  1  0
 28 29  1  0
 29 30  1  0
 30 31  1  0
 31 27  1  0
 32 33  2  0
 33  7  1  0
 33 11  1  0
 34 35  2  0
 35  2  1  0
 35 36  1  0
M  END
> <CMPD_CHEMBLID>
CHEMBL3092308

> <STANDARD_TYPE>
IC50

> <RELATION>
>

> <STANDARD_VALUE>
10000

> <STANDARD_UNITS>
nM

> <Molecular_Weight>
514.97962

$$$$

  SciTegic11272012012D

 33 37  0  0  0  0            999 V2000
    2.0013   -0.4930    0.0000 C   0  0
    1.4302   -0.8237    0.0000 O   0  0
    0.7145   -0.4125    0.0000 C   0  0
    0.7145    0.4125    0.0000 C   0  0
    0.0000    0.8250    0.0000 C   0  0
    0.0000    1.6500    0.0000 N   0  0
   -0.7145    2.0625    0.0000 C   0  0
   -1.4290    1.6500    0.0000 C   0  0
   -2.1439    2.0627    0.0000 C   0  0
   -2.7154    2.3927    0.0000 N   0  0
   -1.4290    0.8250    0.0000 C   0  0
   -2.1447    0.4137    0.0000 N   0  0
   -2.8590    0.8275    0.0000 C   0  0
   -3.2255    1.5181    0.0000 C   0  0
   -3.6405    0.8051    0.0000 C   0  0
   -4.3501    0.3835    0.0000 C   0  0
   -4.6400   -0.3768    0.0000 C   0  0
   -5.4544   -0.5085    0.0000 C   0  0
   -5.9757    0.1309    0.0000 C   0  0
   -5.6826    0.9021    0.0000 C   0  0
   -4.8683    1.0338    0.0000 C   0  0
   -0.7145    0.4125    0.0000 C   0  0
   -0.7145   -0.4125    0.0000 C   0  0
    0.0000   -0.8250    0.0000 C   0  0
   -0.0017   -1.6505    0.0000 O   0  0
   -0.7172   -2.0622    0.0000 C   0  0
   -0.7189   -2.8876    0.0000 C   0  0
   -1.4333   -3.3002    0.0000 C   0  0
   -1.4333   -4.1252    0.0000 C   0  0
   -0.7189   -4.5377    0.0000 C   0  0
   -0.0044   -4.1252    0.0000 C   0  0
   -0.0043   -3.3002    0.0000 C   0  0
   -2.1456   -0.1363    0.0000 H   0  0
  1  2  1  0
  2  3  1  0
  3  4  2  0
  4  5  1  0
  5  6  2  0
  6  7  1  0
  7  8  2  0
  8  9  1  0
  8 11  1  0
  9 10  3  0
 11 12  1  0
 11 22  2  0
 12 13  1  0
 12 33  1  0
 13 14  1  0
 14 15  1  0
 15 13  1  0
 15 16  1  0
 16 17  2  0
 17 18  1  0
 18 19  2  0
 19 20  1  0
 20 21  2  0
 21 16  1  0
 22  5  1  0
 22 23  1  0
 23 24  2  0
 24  3  1  0
 24 25  1  0
 25 26  1  0
 26 27  1  0
 27 28  2  0
 28 29  1  0
 29 30  2  0
 30 31  1  0
 31 32  2  0
 32 27  1  0
M  END
> <CMPD_CHEMBLID>
CHEMBL248220

> <STANDARD_TYPE>
Ki

> <RELATION>
>

> <STANDARD_VALUE>
10000

> <STANDARD_UNITS>
nM

> <Molecular_Weight>
421.49042

$$$$

  SciTegic11272012012D

 25 28  0  0  0  0            999 V2000
    1.4276   -1.4867    0.0000 C   0  0
    1.4285   -0.8267    0.0000 O   0  0
    0.7145   -0.4125    0.0000 C   0  0
    0.7145    0.4125    0.0000 C   0  0
    0.0000    0.8250    0.0000 C   0  0
   -0.7145    0.4125    0.0000 C   0  0
   -1.4290    0.8250    0.0000 C   0  0
   -1.4307    1.6505    0.0000 N   0  0
   -2.1461    2.0622    0.0000 C   0  0
   -2.9275    2.0343    0.0000 C   0  0
   -2.5176    2.7502    0.0000 C   0  0
   -2.5072    3.5755    0.0000 C   0  0
   -1.9938    4.2067    0.0000 C   0  0
   -2.2869    4.9779    0.0000 C   0  0
   -3.1013    5.1097    0.0000 C   0  0
   -3.6226    4.4702    0.0000 C   0  0
   -3.3295    3.6991    0.0000 C   0  0
   -2.1434    0.4125    0.0000 C   0  0
   -2.1434   -0.4125    0.0000 C   0  0
   -1.4290   -0.8250    0.0000 N   0  0
   -0.7145   -0.4125    0.0000 C   0  0
    0.0000   -0.8250    0.0000 C   0  0
   -2.8583    0.8252    0.0000 C   0  0
   -3.4299    1.1552    0.0000 N   0  0
   -0.9548    1.9263    0.0000 H   0  0
  1  2  1  0
  2  3  1  0
  3  4  2  0
  4  5  1  0
  5  6  2  0
  6  7  1  0
  7  8  1  0
  7 18  2  0
  8  9  1  0
  8 25  1  0
  9 10  1  0
 10 11  1  0
 11  9  1  0
 11 12  1  0
 12 13  2  0
 13 14  1  0
 14 15  2  0
 15 16  1  0
 16 17  2  0
 17 12  1  0
 18 19  1  0
 18 23  1  0
 19 20  2  0
 20 21  1  0
 21  6  1  0
 21 22  2  0
 22  3  1  0
 23 24  3  0
M  END
> <CMPD_CHEMBLID>
CHEMBL248045

> <STANDARD_TYPE>
Ki

> <RELATION>
>

> <STANDARD_VALUE>
10000

> <STANDARD_UNITS>
nM

> <Molecular_Weight>
315.36848

$$$$

  SciTegic11272012012D

 36 41  0  0  0  0            999 V2000
    2.0009   -1.1552    0.0000 N   0  0
    1.4293   -0.8252    0.0000 C   0  0
    0.7144   -0.4125    0.0000 C   0  0
    0.7144    0.4125    0.0000 C   0  0
    0.0000    0.8250    0.0000 N   0  0
   -0.7144    0.4125    0.0000 C   0  0
   -1.4290    0.8250    0.0000 C   0  0
   -2.1434    0.4125    0.0000 C   0  0
   -2.1434   -0.4125    0.0000 C   0  0
   -1.4290   -0.8250    0.0000 C   0  0
   -0.7144   -0.4125    0.0000 C   0  0
    0.0000   -0.8250    0.0000 C   0  0
    0.0017   -1.6504    0.0000 N   0  0
    0.7171   -2.0622    0.0000 C   0  0
    1.4985   -2.0342    0.0000 C   0  0
    1.0886   -2.7502    0.0000 C   0  0
    1.0782   -3.5755    0.0000 C   0  0
    0.5648   -4.2067    0.0000 C   0  0
    0.8579   -4.9778    0.0000 C   0  0
    1.6723   -5.1096    0.0000 C   0  0
    2.1936   -4.4702    0.0000 C   0  0
    1.9005   -3.6990    0.0000 C   0  0
   -2.8582   -0.8252    0.0000 C   0  0
   -3.5734   -0.4139    0.0000 C   0  0
   -4.2872   -0.8275    0.0000 C   0  0
   -4.2859   -1.6525    0.0000 C   0  0
   -4.9993   -2.0679    0.0000 C   0  0
   -4.9968   -2.8933    0.0000 N   0  0
   -5.7092   -3.3095    0.0000 C   0  0
   -5.7050   -4.1345    0.0000 C   0  0
   -4.9884   -4.5433    0.0000 O   0  0
   -4.2761   -4.1272    0.0000 C   0  0
   -4.2802   -3.3023    0.0000 C   0  0
   -3.5708   -2.0639    0.0000 C   0  0
   -2.8570   -1.6503    0.0000 C   0  0
   -0.4742   -1.9263    0.0000 H   0  0
  1  2  3  0
  2  3  1  0
  3  4  2  0
  4  5  1  0
  5  6  2  0
  6  7  1  0
  7  8  2  0
  8  9  1  0
  9 10  2  0
  9 23  1  0
 10 11  1  0
 11  6  1  0
 11 12  2  0
 12  3  1  0
 12 13  1  0
 13 14  1  0
 13 36  1  0
 14 15  1  0
 15 16  1  0
 16 14  1  0
 16 17  1  0
 17 18  2  0
 18 19  1  0
 19 20  2  0
 20 21  1  0
 21 22  2  0
 22 17  1  0
 23 24  2  0
 24 25  1  0
 25 26  2  0
 26 27  1  0
 26 34  1  0
 27 28  1  0
 28 29  1  0
 29 30  1  0
 30 31  1  0
 31 32  1  0
 32 33  1  0
 33 28  1  0
 34 35  2  0
 35 23  1  0
M  END
> <CMPD_CHEMBLID>
CHEMBL247024

> <STANDARD_TYPE>
Ki

> <RELATION>
>

> <STANDARD_VALUE>
10000

> <STANDARD_UNITS>
nM

> <Molecular_Weight>
460.56952

$$$$

  SciTegic11272012012D

 36 41  0  0  0  0            999 V2000
    2.0009   -1.1552    0.0000 N   0  0
    1.4293   -0.8252    0.0000 C   0  0
    0.7144   -0.4125    0.0000 C   0  0
    0.7144    0.4125    0.0000 C   0  0
    0.0000    0.8250    0.0000 N   0  0
   -0.7144    0.4125    0.0000 C   0  0
   -1.4290    0.8250    0.0000 C   0  0
   -2.1434    0.4125    0.0000 C   0  0
   -2.1434   -0.4125    0.0000 C   0  0
   -1.4290   -0.8250    0.0000 C   0  0
   -0.7144   -0.4125    0.0000 C   0  0
    0.0000   -0.8250    0.0000 C   0  0
    0.0017   -1.6504    0.0000 N   0  0
    0.7171   -2.0622    0.0000 C   0  0
    1.4985   -2.0342    0.0000 C   0  0
    1.0886   -2.7502    0.0000 C   0  0
    1.0782   -3.5755    0.0000 C   0  0
    0.5648   -4.2067    0.0000 C   0  0
    0.8579   -4.9778    0.0000 C   0  0
    1.6723   -5.1096    0.0000 C   0  0
    2.1936   -4.4702    0.0000 C   0  0
    1.9005   -3.6990    0.0000 C   0  0
   -2.8582   -0.8252    0.0000 C   0  0
   -3.5734   -0.4139    0.0000 C   0  0
   -4.2872   -0.8275    0.0000 C   0  0
   -4.2859   -1.6525    0.0000 C   0  0
   -3.5708   -2.0639    0.0000 C   0  0
   -3.5678   -2.8894    0.0000 C   0  0
   -2.8517   -3.2999    0.0000 N   0  0
   -2.8475   -4.1249    0.0000 C   0  0
   -2.1309   -4.5338    0.0000 C   0  0
   -1.4186   -4.1177    0.0000 O   0  0
   -1.4227   -3.2927    0.0000 C   0  0
   -2.1392   -2.8838    0.0000 C   0  0
   -2.8570   -1.6503    0.0000 C   0  0
   -0.4742   -1.9263    0.0000 H   0  0
  1  2  3  0
  2  3  1  0
  3  4  2  0
  4  5  1  0
  5  6  2  0
  6  7  1  0
  7  8  2  0
  8  9  1  0
  9 10  2  0
  9 23  1  0
 10 11  1  0
 11  6  1  0
 11 12  2  0
 12  3  1  0
 12 13  1  0
 13 14  1  0
 13 36  1  0
 14 15  1  0
 15 16  1  0
 16 14  1  0
 16 17  1  0
 17 18  2  0
 18 19  1  0
 19 20  2  0
 20 21  1  0
 21 22  2  0
 22 17  1  0
 23 24  2  0
 24 25  1  0
 25 26  2  0
 26 27  1  0
 27 28  1  0
 27 35  2  0
 28 29  1  0
 29 30  1  0
 30 31  1  0
 31 32  1  0
 32 33  1  0
 33 34  1  0
 34 29  1  0
 35 23  1  0
M  END
> <CMPD_CHEMBLID>
CHEMBL245799

> <STANDARD_TYPE>
Ki

> <RELATION>
>

> <STANDARD_VALUE>
10000

> <STANDARD_UNITS>
nM

> <Molecular_Weight>
460.56952

$$$$

  SciTegic11272012012D

 33 37  0  0  0  0            999 V2000
    2.0013   -0.4930    0.0000 C   0  0
    1.4302   -0.8237    0.0000 O   0  0
    0.7145   -0.4125    0.0000 C   0  0
    0.7145    0.4125    0.0000 C   0  0
    0.0000    0.8250    0.0000 C   0  0
    0.0000    1.6500    0.0000 C   0  0
    0.7140    2.0642    0.0000 N   0  0
    0.7128    2.8897    0.0000 C   0  0
    0.2979    3.5524    0.0000 C   0  0
    1.1230    3.5554    0.0000 C   0  0
    1.8429    3.9591    0.0000 C   0  0
    2.6463    3.8300    0.0000 C   0  0
    3.1676    4.4695    0.0000 C   0  0
    2.8745    5.2406    0.0000 C   0  0
    2.0601    5.3724    0.0000 C   0  0
    1.5387    4.7330    0.0000 C   0  0
   -0.7145    2.0625    0.0000 C   0  0
   -1.4290    1.6500    0.0000 C   0  0
   -1.4290    0.8250    0.0000 N   0  0
   -0.7145    0.4125    0.0000 C   0  0
   -0.7145   -0.4125    0.0000 C   0  0
    0.0000   -0.8250    0.0000 C   0  0
   -0.0017   -1.6505    0.0000 O   0  0
   -0.7172   -2.0622    0.0000 C   0  0
   -0.7201   -2.8872    0.0000 C   0  0
   -1.4360   -3.2972    0.0000 C   0  0
   -2.1490   -2.8823    0.0000 N   0  0
   -2.7217   -3.2103    0.0000 C   0  0
   -2.1461   -2.0573    0.0000 C   0  0
   -1.4302   -1.6472    0.0000 C   0  0
   -0.7145    2.8880    0.0000 C   0  0
   -0.7145    3.5480    0.0000 N   0  0
    1.1908    1.7901    0.0000 H   0  0
  1  2  1  0
  2  3  1  0
  3  4  2  0
  4  5  1  0
  5  6  2  0
  6  7  1  0
  6 17  1  0
  7  8  1  0
  7 33  1  0
  8  9  1  0
  9 10  1  0
 10  8  1  0
 10 11  1  0
 11 12  2  0
 12 13  1  0
 13 14  2  0
 14 15  1  0
 15 16  2  0
 16 11  1  0
 17 18  2  0
 17 31  1  0
 18 19  1  0
 19 20  2  0
 20  5  1  0
 20 21  1  0
 21 22  2  0
 22  3  1  0
 22 23  1  0
 23 24  1  0
 24 25  1  0
 25 26  1  0
 26 27  1  0
 27 28  1  0
 27 29  1  0
 29 30  1  0
 30 24  1  0
 31 32  3  0
M  END
> <CMPD_CHEMBLID>
CHEMBL245798

> <STANDARD_TYPE>
Ki

> <RELATION>
>

> <STANDARD_VALUE>
10000

> <STANDARD_UNITS>
nM

> <Molecular_Weight>
428.52612

$$$$

  SciTegic11272012012D

 28 31  0  0  0  0            999 V2000
    2.0013   -0.4930    0.0000 C   0  0
    1.4302   -0.8237    0.0000 O   0  0
    0.7144   -0.4125    0.0000 C   0  0
    0.7144    0.4125    0.0000 C   0  0
    0.0000    0.8250    0.0000 C   0  0
    0.0000    1.6500    0.0000 N   0  0
   -0.7145    2.0625    0.0000 C   0  0
   -1.4290    1.6500    0.0000 N   0  0
   -1.4290    0.8250    0.0000 C   0  0
   -2.1447    0.4137    0.0000 N   0  0
   -2.8590    0.8275    0.0000 C   0  0
   -3.5749    0.4174    0.0000 C   0  0
   -4.2879    0.8324    0.0000 C   0  0
   -4.2851    1.6574    0.0000 C   0  0
   -3.5692    2.0675    0.0000 C   0  0
   -2.8561    1.6525    0.0000 C   0  0
   -3.5663    2.8929    0.0000 C   0  0
   -4.2787    3.3090    0.0000 C   0  0
   -4.2745    4.1340    0.0000 C   0  0
   -3.5580    4.5429    0.0000 C   0  0
   -2.8456    4.1268    0.0000 C   0  0
   -2.8498    3.3018    0.0000 C   0  0
   -0.7144    0.4125    0.0000 C   0  0
   -0.7144   -0.4125    0.0000 C   0  0
    0.0000   -0.8250    0.0000 C   0  0
   -0.0017   -1.6504    0.0000 O   0  0
   -0.5738   -1.9797    0.0000 C   0  0
   -2.1456   -0.1363    0.0000 H   0  0
  1  2  1  0
  2  3  1  0
  3  4  2  0
  4  5  1  0
  5  6  2  0
  6  7  1  0
  7  8  2  0
  8  9  1  0
  9 10  1  0
  9 23  2  0
 10 11  1  0
 10 28  1  0
 11 12  2  0
 12 13  1  0
 13 14  2  0
 14 15  1  0
 15 16  2  0
 15 17  1  0
 16 11  1  0
 17 18  2  0
 18 19  1  0
 19 20  2  0
 20 21  1  0
 21 22  2  0
 22 17  1  0
 23  5  1  0
 23 24  1  0
 24 25  2  0
 25  3  1  0
 25 26  1  0
 26 27  1  0
M  END
> <CMPD_CHEMBLID>
CHEMBL2333991

> <STANDARD_TYPE>
IC50

> <RELATION>
>

> <STANDARD_VALUE>
10000

> <STANDARD_UNITS>
nM

> <Molecular_Weight>
357.40516

$$$$

  SciTegic11272012012D

 34 37  0  0  0  0            999 V2000
    3.2288   -0.8904    0.0000 C   0  0
    2.7782   -1.3726    0.0000 C   0  0
    3.0186   -2.1618    0.0000 C   0  0
    3.6616   -2.3109    0.0000 F   0  0
    2.4554   -2.7646    0.0000 C   0  0
    1.6518   -2.5783    0.0000 C   0  0
    1.4113   -1.7892    0.0000 C   0  0
    1.9745   -1.1862    0.0000 C   0  0
    1.7323   -0.3971    0.0000 C   0  0
    2.1821    0.0859    0.0000 O   0  0
    0.9269   -0.2115    0.0000 N   0  0
    0.7433    0.5928    0.0000 C   0  0
    0.0000    0.9507    0.0000 C   0  0
   -0.7433    0.5927    0.0000 O   0  0
   -0.9269   -0.2116    0.0000 C   0  0
   -1.7432   -0.3349    0.0000 C   0  0
   -2.0446   -1.1029    0.0000 C   0  0
   -1.5302   -1.7480    0.0000 C   0  0
   -0.7144   -1.6250    0.0000 C   0  0
   -0.4125   -0.8566    0.0000 C   0  0
    0.4125   -0.8566    0.0000 C   0  0
   -1.8318   -2.5163    0.0000 C   0  0
   -2.6474   -2.6406    0.0000 C   0  0
   -2.9476   -3.4091    0.0000 C   0  0
   -2.4322   -4.0532    0.0000 C   0  0
   -2.7309   -4.8227    0.0000 N   0  0
   -1.6166   -3.9290    0.0000 N   0  0
   -1.3164   -3.1605    0.0000 C   0  0
    2.6960   -3.5543    0.0000 S   0  0
    3.3389   -3.7038    0.0000 O   0  0
    2.2453   -4.0364    0.0000 O   0  0
    2.8881   -4.1857    0.0000 C   0  0
   -2.3867   -5.2517    0.0000 H   0  0
   -3.2745   -4.9065    0.0000 H   0  0
  1  2  1  0
  2  3  2  0
  3  4  1  0
  3  5  1  0
  5  6  2  0
  5 29  1  0
  6  7  1  0
  7  8  2  0
  8  2  1  0
  8  9  1  0
  9 10  2  0
  9 11  1  0
 11 12  1  0
 12 13  1  0
 13 14  1  0
 14 15  1  0
 15 16  2  0
 16 17  1  0
 17 18  2  0
 18 19  1  0
 18 22  1  0
 19 20  2  0
 20 15  1  0
 20 21  1  0
 21 11  1  0
 22 23  2  0
 23 24  1  0
 24 25  2  0
 25 26  1  0
 25 27  1  0
 26 33  1  0
 26 34  1  0
 27 28  2  0
 28 22  1  0
 29 30  2  0
 29 31  2  0
 29 32  1  0
M  END
> <CMPD_CHEMBLID>
CHEMBL2333365

> <STANDARD_TYPE>
IC50

> <RELATION>
>

> <STANDARD_VALUE>
10000

> <STANDARD_UNITS>
nM

> <Molecular_Weight>
455.50188

$$$$

  SciTegic11272012012D

 42 47  0  0  0  0            999 V2000
    1.5520   -1.1676    0.0000 O   0  0
    0.8955   -1.2354    0.0000 C   0  0
    0.5586   -1.9890    0.0000 N   0  0
    1.0425   -2.6578    0.0000 C   0  0
    0.7056   -3.4114    0.0000 C   0  0
    1.1894   -4.0802    0.0000 N   0  0
    0.9274   -4.8551    0.0000 C   0  0
    1.5948   -5.3400    0.0000 C   0  0
    2.2623   -4.8552    0.0000 C   0  0
    2.0074   -4.0705    0.0000 C   0  0
    1.8635   -2.5730    0.0000 C   0  0
    2.2015   -1.8203    0.0000 C   0  0
    3.0222   -1.7367    0.0000 C   0  0
    3.5050   -2.4056    0.0000 C   0  0
    3.1671   -3.1583    0.0000 C   0  0
    2.3464   -3.2419    0.0000 C   0  0
    0.4125   -0.5678    0.0000 C   0  0
    0.6674    0.2169    0.0000 C   0  0
    0.0000    0.7018    0.0000 C   0  0
   -0.2543    1.4855    0.0000 N   0  0
   -1.0793    1.4854    0.0000 N   0  0
   -1.3342    0.7009    0.0000 C   0  0
   -2.1183    0.4474    0.0000 N   0  0
   -2.7312    1.0003    0.0000 C   0  0
   -2.5932    1.6458    0.0000 O   0  0
   -3.5167    0.7465    0.0000 C   0  0
   -4.1300    1.2982    0.0000 C   0  0
   -4.9146    1.0429    0.0000 C   0  0
   -5.0857    0.2358    0.0000 C   0  0
   -4.4724   -0.3159    0.0000 C   0  0
   -3.6878   -0.0606    0.0000 C   0  0
   -5.8706   -0.0196    0.0000 N   0  0
   -6.4849    0.5312    0.0000 C   0  0
   -7.2690    0.2746    0.0000 C   0  0
   -7.4388   -0.5327    0.0000 O   0  0
   -6.8246   -1.0834    0.0000 C   0  0
   -6.0405   -0.8269    0.0000 C   0  0
   -0.6674    0.2169    0.0000 C   0  0
   -0.4125   -0.5678    0.0000 S   0  0
   -2.2333   -0.0904    0.0000 H   0  0
    0.0691    1.9304    0.0000 H   0  0
    0.0115   -2.0456    0.0000 H   0  0
  1  2  2  0
  2  3  1  0
  2 17  1  0
  3  4  1  0
  3 42  1  0
  4  5  1  0
  4 11  1  0
  5  6  1  0
  6  7  1  0
  7  8  1  0
  8  9  1  0
  9 10  1  0
 10  6  1  0
 11 12  2  0
 12 13  1  0
 13 14  2  0
 14 15  1  0
 15 16  2  0
 16 11  1  0
 17 18  2  0
 18 19  1  0
 19 20  1  0
 20 21  1  0
 20 41  1  0
 21 22  2  0
 22 23  1  0
 22 38  1  0
 23 24  1  0
 23 40  1  0
 24 25  2  0
 24 26  1  0
 26 27  2  0
 27 28  1  0
 28 29  2  0
 29 30  1  0
 29 32  1  0
 30 31  2  0
 31 26  1  0
 32 33  1  0
 33 34  1  0
 34 35  1  0
 35 36  1  0
 36 37  1  0
 37 32  1  0
 38 19  2  0
 38 39  1  0
 39 17  1  0
M  END
> <CMPD_CHEMBLID>
CHEMBL1258913

> <STANDARD_TYPE>
IC50

> <RELATION>
>

> <STANDARD_VALUE>
10000

> <STANDARD_UNITS>
nM

> <Molecular_Weight>
544.66778

$$$$

  SciTegic11272012012D

 27 29  0  0  0  0            999 V2000
   -0.1742   -2.8725    0.0000 C   0  0
   -0.3790   -2.2450    0.0000 C   0  0
   -1.0247   -2.1088    0.0000 C   0  0
    0.1713   -1.6316    0.0000 N   0  0
    0.9918   -1.7179    0.0000 N   0  0
    1.3273   -0.9642    0.0000 C   0  0
    2.1348   -0.7925    0.0000 C   0  0
    2.7291   -1.3607    0.0000 C   0  0
    3.5209   -1.1288    0.0000 C   0  0
    3.7159   -0.3272    0.0000 C   0  0
    3.1193    0.2426    0.0000 C   0  0
    2.3275    0.0107    0.0000 C   0  0
    3.3145    1.0446    0.0000 S   0  0
    2.8370    1.5003    0.0000 O   0  0
    3.4702    1.6860    0.0000 O   0  0
    4.1066    1.2771    0.0000 N   0  0
    0.7145   -0.4125    0.0000 C   0  0
    0.7145    0.4125    0.0000 C   0  0
    1.4285    0.8267    0.0000 N   0  0
    0.0000    0.8250    0.0000 N   0  0
   -0.7145    0.4125    0.0000 C   0  0
   -0.7145   -0.4125    0.0000 N   0  0
    0.0000   -0.8250    0.0000 C   0  0
    1.4277    1.3767    0.0000 H   0  0
    1.9053    0.5525    0.0000 H   0  0
    4.2366    1.8115    0.0000 H   0  0
    4.5044    0.8974    0.0000 H   0  0
  1  2  1  0
  2  3  1  0
  2  4  1  0
  4  5  1  0
  5  6  2  0
  6  7  1  0
  6 17  1  0
  7  8  2  0
  8  9  1  0
  9 10  2  0
 10 11  1  0
 11 12  2  0
 11 13  1  0
 12  7  1  0
 13 14  2  0
 13 15  2  0
 13 16  1  0
 16 26  1  0
 16 27  1  0
 17 18  2  0
 18 19  1  0
 18 20  1  0
 19 24  1  0
 19 25  1  0
 20 21  2  0
 21 22  1  0
 22 23  2  0
 23  4  1  0
 23 17  1  0
M  END
> <CMPD_CHEMBLID>
CHEMBL1242031

> <STANDARD_TYPE>
IC50

> <RELATION>
=

> <STANDARD_VALUE>
11000

> <STANDARD_UNITS>
nM

> <Molecular_Weight>
332.38084

$$$$

  SciTegic11272012012D

 40 44  0  0  0  0            999 V2000
    6.4322   -2.0623    0.0000 N   0  0
    6.4305   -2.8877    0.0000 C   0  0
    7.1450   -3.3002    0.0000 C   0  0
    7.1450   -4.1252    0.0000 C   0  0
    6.4305   -4.5377    0.0000 C   0  0
    5.7160   -4.1252    0.0000 C   0  0
    5.7160   -3.3002    0.0000 C   0  0
    5.0003   -2.8889    0.0000 N   0  0
    4.2860   -3.3026    0.0000 C   0  0
    4.2871   -3.9626    0.0000 O   0  0
    3.5703   -2.8914    0.0000 C   0  0
    2.8558   -3.3038    0.0000 C   0  0
    2.1414   -2.8913    0.0000 C   0  0
    2.1413   -2.0663    0.0000 C   0  0
    1.4273   -1.6521    0.0000 C   0  0
    1.4285   -0.8267    0.0000 O   0  0
    0.7144   -0.4125    0.0000 C   0  0
    0.7144    0.4125    0.0000 C   0  0
    0.0000    0.8250    0.0000 C   0  0
   -0.7144    0.4125    0.0000 C   0  0
   -1.4290    0.8250    0.0000 N   0  0
   -2.1434    0.4125    0.0000 C   0  0
   -2.1434   -0.4125    0.0000 N   0  0
   -1.4290   -0.8250    0.0000 C   0  0
   -1.4306   -1.6504    0.0000 N   0  0
   -2.1461   -2.0622    0.0000 C   0  0
   -2.1490   -2.8872    0.0000 C   0  0
   -2.8649   -3.2972    0.0000 C   0  0
   -3.5779   -2.8823    0.0000 C   0  0
   -3.5751   -2.0573    0.0000 C   0  0
   -4.1455   -1.7253    0.0000 Br  0  0
   -2.8592   -1.6472    0.0000 C   0  0
   -0.7144   -0.4125    0.0000 C   0  0
    0.0000   -0.8250    0.0000 C   0  0
    2.8559   -1.6538    0.0000 C   0  0
    3.5703   -2.0664    0.0000 C   0  0
   -0.9548   -1.9263    0.0000 H   0  0
    4.9993   -2.3389    0.0000 H   0  0
    6.9089   -1.7880    0.0000 H   0  0
    5.9564   -1.7865    0.0000 H   0  0
  1  2  1  0
  1 39  1  0
  1 40  1  0
  2  3  2  0
  3  4  1  0
  4  5  2  0
  5  6  1  0
  6  7  2  0
  7  2  1  0
  7  8  1  0
  8  9  1  0
  8 38  1  0
  9 10  2  0
  9 11  1  0
 11 12  2  0
 12 13  1  0
 13 14  2  0
 14 15  1  0
 14 35  1  0
 15 16  1  0
 16 17  1  0
 17 18  2  0
 18 19  1  0
 19 20  2  0
 20 21  1  0
 21 22  2  0
 22 23  1  0
 23 24  2  0
 24 25  1  0
 24 33  1  0
 25 26  1  0
 25 37  1  0
 26 27  2  0
 27 28  1  0
 28 29  2  0
 29 30  1  0
 30 31  1  0
 30 32  2  0
 32 26  1  0
 33 20  1  0
 33 34  2  0
 34 17  1  0
 35 36  2  0
 36 11  1  0
M  END
> <CMPD_CHEMBLID>
CHEMBL3217993

> <STANDARD_TYPE>
IC50

> <RELATION>
=

> <STANDARD_VALUE>
11000

> <STANDARD_UNITS>
nM

> <Molecular_Weight>
540.41058

$$$$

  SciTegic11272012012D

 27 29  0  0  0  0            999 V2000
   -0.1742   -2.8725    0.0000 C   0  0
   -0.3790   -2.2450    0.0000 C   0  0
   -1.0247   -2.1088    0.0000 C   0  0
    0.1713   -1.6316    0.0000 N   0  0
    0.9918   -1.7179    0.0000 N   0  0
    1.3273   -0.9642    0.0000 C   0  0
    2.1348   -0.7925    0.0000 C   0  0
    2.7291   -1.3607    0.0000 C   0  0
    3.5209   -1.1288    0.0000 C   0  0
    3.7159   -0.3272    0.0000 C   0  0
    4.5077   -0.0936    0.0000 N   0  0
    4.7017    0.7087    0.0000 S   0  0
    5.3348    0.8955    0.0000 O   0  0
    4.2236    1.1637    0.0000 O   0  0
    4.8566    1.3503    0.0000 C   0  0
    3.1193    0.2426    0.0000 C   0  0
    2.3275    0.0107    0.0000 C   0  0
    0.7145   -0.4125    0.0000 C   0  0
    0.7145    0.4125    0.0000 C   0  0
    1.4285    0.8267    0.0000 N   0  0
    0.0000    0.8250    0.0000 N   0  0
   -0.7145    0.4125    0.0000 C   0  0
   -0.7145   -0.4125    0.0000 N   0  0
    0.0000   -0.8250    0.0000 C   0  0
    1.4277    1.3767    0.0000 H   0  0
    1.9053    0.5525    0.0000 H   0  0
    4.9062   -0.4727    0.0000 H   0  0
  1  2  1  0
  2  3  1  0
  2  4  1  0
  4  5  1  0
  5  6  2  0
  6  7  1  0
  6 18  1  0
  7  8  2  0
  8  9  1  0
  9 10  2  0
 10 11  1  0
 10 16  1  0
 11 12  1  0
 11 27  1  0
 12 13  2  0
 12 14  2  0
 12 15  1  0
 16 17  2  0
 17  7  1  0
 18 19  2  0
 19 20  1  0
 19 21  1  0
 20 25  1  0
 20 26  1  0
 21 22  2  0
 22 23  1  0
 23 24  2  0
 24  4  1  0
 24 18  1  0
M  END
> <CMPD_CHEMBLID>
CHEMBL1242030

> <STANDARD_TYPE>
IC50

> <RELATION>
=

> <STANDARD_VALUE>
11000

> <STANDARD_UNITS>
nM

> <Molecular_Weight>
346.40742

$$$$

  SciTegic11272012012D

 25 27  0  0  0  0            999 V2000
   -1.0672   -4.8712    0.0000 C   0  0
   -0.5893   -4.4160    0.0000 O   0  0
   -0.7828   -3.6136    0.0000 C   0  0
   -1.5746   -3.3817    0.0000 C   0  0
   -1.7697   -2.5801    0.0000 C   0  0
   -1.1730   -2.0103    0.0000 C   0  0
   -0.3810   -2.2450    0.0000 C   0  0
   -0.1861   -3.0438    0.0000 C   0  0
    0.6059   -3.2765    0.0000 O   0  0
    0.7618   -3.9178    0.0000 C   0  0
    0.1713   -1.6316    0.0000 C   0  0
    0.9918   -1.7179    0.0000 N   0  0
    1.3273   -0.9642    0.0000 N   0  0
    2.1337   -0.7943    0.0000 C   0  0
    2.5748   -1.2854    0.0000 C   0  0
    2.3387   -0.1669    0.0000 C   0  0
    0.7145   -0.4125    0.0000 C   0  0
    0.7145    0.4125    0.0000 N   0  0
    0.0000    0.8250    0.0000 C   0  0
   -0.7145    0.4125    0.0000 N   0  0
   -0.7145   -0.4125    0.0000 C   0  0
   -1.4302   -0.8238    0.0000 N   0  0
    0.0000   -0.8250    0.0000 C   0  0
   -1.9062   -0.5481    0.0000 H   0  0
   -1.4312   -1.3738    0.0000 H   0  0
  1  2  1  0
  2  3  1  0
  3  4  2  0
  4  5  1  0
  5  6  2  0
  6  7  1  0
  7  8  2  0
  7 11  1  0
  8  3  1  0
  8  9  1  0
  9 10  1  0
 11 12  2  0
 12 13  1  0
 13 14  1  0
 13 17  1  0
 14 15  1  0
 14 16  1  0
 17 18  2  0
 18 19  1  0
 19 20  2  0
 20 21  1  0
 21 22  1  0
 21 23  2  0
 22 24  1  0
 22 25  1  0
 23 11  1  0
 23 17  1  0
M  END
> <CMPD_CHEMBLID>
CHEMBL1242751

> <STANDARD_TYPE>
IC50

> <RELATION>
=

> <STANDARD_VALUE>
11200

> <STANDARD_UNITS>
nM

> <Molecular_Weight>
313.35436

$$$$

  SciTegic11272012012D

 31 34  0  0  0  0            999 V2000
    1.4302   -0.8237    0.0000 O   0  0
    0.7144   -0.4125    0.0000 C   0  0
    0.7144    0.4125    0.0000 C   0  0
    0.0000    0.8250    0.0000 C   0  0
   -0.0017    1.6504    0.0000 O   0  0
   -0.7171    2.0622    0.0000 C   0  0
   -0.7188    2.8876    0.0000 C   0  0
   -0.1478    3.2186    0.0000 O   0  0
   -1.4343    3.2993    0.0000 N   0  0
   -1.4360    4.1248    0.0000 C   0  0
   -2.1505    4.5373    0.0000 C   0  0
   -2.1505    5.3623    0.0000 C   0  0
   -1.4361    5.7748    0.0000 C   0  0
   -0.7215    5.3623    0.0000 C   0  0
   -0.7215    4.5373    0.0000 N   0  0
   -0.7144    0.4125    0.0000 C   0  0
   -0.7144   -0.4125    0.0000 C   0  0
   -1.4290   -0.8250    0.0000 O   0  0
   -1.4290   -1.6500    0.0000 C   0  0
   -0.7144   -2.0625    0.0000 C   0  0
    0.0000   -1.6500    0.0000 C   0  0
    0.5716   -1.9800    0.0000 O   0  0
    0.0000   -0.8250    0.0000 C   0  0
   -2.1437   -2.0627    0.0000 C   0  0
   -2.8590   -1.6514    0.0000 C   0  0
   -3.5727   -2.0650    0.0000 C   0  0
   -3.5714   -2.8900    0.0000 C   0  0
   -2.8563   -3.3014    0.0000 C   0  0
   -2.1425   -2.8878    0.0000 C   0  0
   -1.9101    3.0235    0.0000 H   0  0
    1.9061   -0.5481    0.0000 H   0  0
  1  2  1  0
  1 31  1  0
  2  3  2  0
  3  4  1  0
  4  5  1  0
  4 16  2  0
  5  6  1  0
  6  7  1  0
  7  8  2  0
  7  9  1  0
  9 10  1  0
  9 30  1  0
 10 11  2  0
 11 12  1  0
 12 13  2  0
 13 14  1  0
 14 15  2  0
 15 10  1  0
 16 17  1  0
 17 18  1  0
 18 19  1  0
 19 20  2  0
 19 24  1  0
 20 21  1  0
 21 22  2  0
 21 23  1  0
 23  2  1  0
 23 17  2  0
 24 25  2  0
 25 26  1  0
 26 27  2  0
 27 28  1  0
 28 29  2  0
 29 24  1  0
M  END
> <CMPD_CHEMBLID>
CHEMBL2408497

> <STANDARD_TYPE>
IC50

> <RELATION>
=

> <STANDARD_VALUE>
11200

> <STANDARD_UNITS>
nM

> <Molecular_Weight>
388.37284

$$$$

  SciTegic11272012012D

 25 28  0  0  0  0            999 V2000
    2.2541   -3.0993    0.0000 C   0  0
    2.6435   -2.5664    0.0000 C   0  0
    3.2996   -2.6374    0.0000 C   0  0
    2.3108   -1.8125    0.0000 N   0  0
    1.5040   -1.6398    0.0000 N   0  0
    1.4293   -0.8252    0.0000 C   0  0
    0.7145   -0.4125    0.0000 C   0  0
    0.7145    0.4125    0.0000 C   0  0
    0.0000    0.8250    0.0000 C   0  0
   -0.7145    0.4125    0.0000 C   0  0
   -1.4290    0.8250    0.0000 C   0  0
   -2.1435    0.4125    0.0000 N   0  0
   -2.1435   -0.4125    0.0000 C   0  0
   -1.4290   -0.8250    0.0000 C   0  0
   -0.7145   -0.4125    0.0000 C   0  0
    0.0000   -0.8250    0.0000 C   0  0
    2.1728   -0.4850    0.0000 C   0  0
    2.4289    0.2993    0.0000 C   0  0
    1.8786    0.9146    0.0000 N   0  0
    3.2361    0.4697    0.0000 N   0  0
    3.7873   -0.1443    0.0000 C   0  0
    3.5312   -0.9285    0.0000 N   0  0
    2.7239   -1.0989    0.0000 C   0  0
    2.0501    1.4372    0.0000 H   0  0
    1.3403    0.8020    0.0000 H   0  0
  1  2  1  0
  2  3  1  0
  2  4  1  0
  4  5  1  0
  5  6  2  0
  6  7  1  0
  6 17  1  0
  7  8  2  0
  8  9  1  0
  9 10  2  0
 10 11  1  0
 11 12  2  0
 12 13  1  0
 13 14  2  0
 14 15  1  0
 15 10  1  0
 15 16  2  0
 16  7  1  0
 17 18  2  0
 18 19  1  0
 18 20  1  0
 19 24  1  0
 19 25  1  0
 20 21  2  0
 21 22  1  0
 22 23  2  0
 23  4  1  0
 23 17  1  0
M  END
> <CMPD_CHEMBLID>
CHEMBL1242207

> <STANDARD_TYPE>
IC50

> <RELATION>
=

> <STANDARD_VALUE>
12000

> <STANDARD_UNITS>
nM

> <Molecular_Weight>
304.34914

$$$$

  SciTegic11272012012D

 27 30  0  0  0  0            999 V2000
   -0.1742   -2.8725    0.0000 C   0  0
   -0.3790   -2.2450    0.0000 C   0  0
   -1.0247   -2.1088    0.0000 C   0  0
    0.1713   -1.6316    0.0000 N   0  0
    0.9918   -1.7179    0.0000 N   0  0
    1.3273   -0.9642    0.0000 C   0  0
    2.1348   -0.7925    0.0000 C   0  0
    2.7291   -1.3607    0.0000 C   0  0
    3.5209   -1.1288    0.0000 C   0  0
    3.7159   -0.3272    0.0000 C   0  0
    4.4419    0.0639    0.0000 C   0  0
    5.1852   -0.2918    0.0000 C   0  0
    5.7299    0.0810    0.0000 O   0  0
    4.2941    0.8756    0.0000 C   0  0
    3.4765    0.9858    0.0000 N   0  0
    3.1193    0.2426    0.0000 C   0  0
    2.3275    0.0107    0.0000 C   0  0
    0.7145   -0.4125    0.0000 C   0  0
    0.7145    0.4125    0.0000 C   0  0
    1.4285    0.8267    0.0000 N   0  0
    0.0000    0.8250    0.0000 N   0  0
   -0.7145    0.4125    0.0000 C   0  0
   -0.7145   -0.4125    0.0000 N   0  0
    0.0000   -0.8250    0.0000 C   0  0
    1.4277    1.3767    0.0000 H   0  0
    1.9053    0.5525    0.0000 H   0  0
    3.2155    1.4699    0.0000 H   0  0
  1  2  1  0
  2  3  1  0
  2  4  1  0
  4  5  1  0
  5  6  2  0
  6  7  1  0
  6 18  1  0
  7  8  2  0
  8  9  1  0
  9 10  2  0
 10 11  1  0
 11 12  1  0
 11 14  2  0
 12 13  2  0
 14 15  1  0
 15 16  1  0
 15 27  1  0
 16 10  1  0
 16 17  2  0
 17  7  1  0
 18 19  2  0
 19 20  1  0
 19 21  1  0
 20 25  1  0
 20 26  1  0
 21 22  2  0
 22 23  1  0
 23 24  2  0
 24  4  1  0
 24 18  1  0
M  END
> <CMPD_CHEMBLID>
CHEMBL1242666

> <STANDARD_TYPE>
IC50

> <RELATION>
=

> <STANDARD_VALUE>
12000

> <STANDARD_UNITS>
nM

> <Molecular_Weight>
320.34854

$$$$

  SciTegic11272012012D

 37 40  0  0  0  0            999 V2000
    1.2861   -0.7425    0.0000 Cl  0  0
    0.7144   -0.4125    0.0000 C   0  0
    0.7144    0.4125    0.0000 C   0  0
    0.0000    0.8250    0.0000 C   0  0
   -0.7144    0.4125    0.0000 C   0  0
   -1.2861    0.7425    0.0000 Cl  0  0
   -0.7144   -0.4125    0.0000 C   0  0
   -1.4285   -0.8267    0.0000 C   0  0
   -1.4273   -1.6521    0.0000 N   0  0
   -2.1413   -2.0663    0.0000 C   0  0
   -2.1414   -2.8913    0.0000 N   0  0
   -2.8558   -3.3039    0.0000 C   0  0
   -3.5703   -2.8914    0.0000 C   0  0
   -4.2843   -3.3056    0.0000 C   0  0
   -4.8564   -2.9767    0.0000 O   0  0
   -4.2831   -4.1311    0.0000 N   0  0
   -4.9971   -4.5453    0.0000 C   0  0
   -4.9959   -5.3707    0.0000 C   0  0
   -5.7099   -5.7850    0.0000 C   0  0
   -5.7087   -6.6104    0.0000 N   0  0
   -5.0396   -7.0810    0.0000 C   0  0
   -5.2918   -7.8665    0.0000 C   0  0
   -6.1168   -7.8694    0.0000 C   0  0
   -6.3745   -7.0856    0.0000 C   0  0
   -7.0017   -6.8802    0.0000 O   0  0
   -3.5703   -2.0664    0.0000 C   0  0
   -4.2843   -1.6523    0.0000 N   0  0
   -4.2832   -0.8268    0.0000 C   0  0
   -4.9490   -0.3516    0.0000 C   0  0
   -4.6913    0.4321    0.0000 C   0  0
   -3.8663    0.4293    0.0000 C   0  0
   -3.6141   -0.3562    0.0000 C   0  0
   -2.8559   -1.6539    0.0000 N   0  0
    0.0000   -0.8250    0.0000 C   0  0
   -4.7611   -1.9264    0.0000 H   0  0
   -3.8063   -4.4052    0.0000 H   0  0
   -0.9505   -1.9263    0.0000 H   0  0
  1  2  1  0
  2  3  2  0
  3  4  1  0
  4  5  2  0
  5  6  1  0
  5  7  1  0
  7  8  1  0
  7 34  2  0
  8  9  1  0
  9 10  1  0
  9 37  1  0
 10 11  2  0
 11 12  1  0
 12 13  2  0
 13 14  1  0
 13 26  1  0
 14 15  2  0
 14 16  1  0
 16 17  1  0
 16 36  1  0
 17 18  1  0
 18 19  1  0
 19 20  1  0
 20 21  1  0
 21 22  1  0
 22 23  1  0
 23 24  1  0
 24 20  1  0
 24 25  2  0
 26 27  1  0
 26 33  2  0
 27 28  1  0
 27 35  1  0
 28 29  1  0
 29 30  1  0
 30 31  1  0
 31 32  1  0
 32 28  1  0
 33 10  1  0
 34  2  1  0
M  END
> <CMPD_CHEMBLID>
CHEMBL2312303

> <STANDARD_TYPE>
IC50

> <RELATION>
=

> <STANDARD_VALUE>
12030

> <STANDARD_UNITS>
nM

> <Molecular_Weight>
505.44

$$$$

  SciTegic11272012012D

 18 20  0  0  0  0            999 V2000
   -0.2704   -2.1220    0.0000 O   0  0
    0.1713   -1.6316    0.0000 C   0  0
    0.9918   -1.7178    0.0000 N   0  0
    1.3273   -0.9642    0.0000 N   0  0
    0.7145   -0.4125    0.0000 C   0  0
    0.7145    0.4125    0.0000 C   0  0
    0.0000    0.8250    0.0000 C   0  0
   -0.7145    0.4125    0.0000 C   0  0
   -0.7145   -0.4125    0.0000 C   0  0
   -1.4293   -0.8252    0.0000 C   0  0
   -2.1445   -0.4139    0.0000 C   0  0
   -2.8583   -0.8275    0.0000 C   0  0
   -2.8570   -1.6526    0.0000 C   0  0
   -2.1419   -2.0639    0.0000 C   0  0
   -1.4280   -1.6502    0.0000 C   0  0
    0.0000   -0.8250    0.0000 C   0  0
    1.8654   -0.8498    0.0000 H   0  0
    1.2668   -2.1941    0.0000 H   0  0
  1  2  2  0
  2  3  1  0
  3  4  1  0
  3 18  1  0
  4  5  1  0
  4 17  1  0
  5  6  2  0
  6  7  1  0
  7  8  2  0
  8  9  1  0
  9 10  1  0
  9 16  2  0
 10 11  2  0
 11 12  1  0
 12 13  2  0
 13 14  1  0
 14 15  2  0
 15 10  1  0
 16  2  1  0
 16  5  1  0
M  END
> <CMPD_CHEMBLID>
CHEMBL1989834

> <STANDARD_TYPE>
Ki

> <RELATION>
>

> <STANDARD_VALUE>
12589.25

> <STANDARD_UNITS>
nM

> <Molecular_Weight>
210.2313

$$$$

  SciTegic11272012012D

 16 17  0  0  0  0            999 V2000
    0.8876   -2.1868    0.0000 N   0  0
    1.5039   -1.6399    0.0000 C   0  0
    2.3106   -1.8126    0.0000 C   0  0
    2.7243   -1.0988    0.0000 C   0  0
    3.3808   -1.0308    0.0000 O   0  0
    2.1732   -0.4848    0.0000 N   0  0
    1.4293   -0.8252    0.0000 N   0  0
    0.7145   -0.4125    0.0000 C   0  0
    0.7145    0.4125    0.0000 C   0  0
    0.0000    0.8250    0.0000 C   0  0
   -0.7145    0.4125    0.0000 C   0  0
   -0.7145   -0.4125    0.0000 C   0  0
    0.0000   -0.8250    0.0000 N   0  0
    2.2852    0.0537    0.0000 H   0  0
    0.9977   -2.7257    0.0000 H   0  0
    0.3658   -2.0129    0.0000 H   0  0
  1  2  1  0
  1 15  1  0
  1 16  1  0
  2  3  2  0
  3  4  1  0
  4  5  2  0
  4  6  1  0
  6  7  1  0
  6 14  1  0
  7  2  1  0
  7  8  1  0
  8  9  2  0
  9 10  1  0
 10 11  2  0
 11 12  1  0
 12 13  2  0
 13  8  1  0
M  END
> <CMPD_CHEMBLID>
CHEMBL1995765

> <STANDARD_TYPE>
Ki

> <RELATION>
=

> <STANDARD_VALUE>
12589.25

> <STANDARD_UNITS>
nM

> <Molecular_Weight>
176.17532

$$$$

  SciTegic11272012012D

 24 27  0  0  0  0            999 V2000
   -0.1742   -2.8725    0.0000 C   0  0
   -0.3790   -2.2450    0.0000 C   0  0
   -1.0247   -2.1088    0.0000 C   0  0
    0.1713   -1.6316    0.0000 N   0  0
    0.9918   -1.7179    0.0000 N   0  0
    1.3273   -0.9642    0.0000 C   0  0
    2.1348   -0.7925    0.0000 C   0  0
    2.7291   -1.3607    0.0000 C   0  0
    3.5209   -1.1288    0.0000 C   0  0
    3.7159   -0.3272    0.0000 C   0  0
    4.4419    0.0639    0.0000 N   0  0
    4.2941    0.8756    0.0000 O   0  0
    3.4765    0.9858    0.0000 N   0  0
    3.1193    0.2426    0.0000 C   0  0
    2.3275    0.0107    0.0000 C   0  0
    0.7145   -0.4125    0.0000 C   0  0
    0.7145    0.4125    0.0000 C   0  0
    1.4285    0.8267    0.0000 N   0  0
    0.0000    0.8250    0.0000 N   0  0
   -0.7145    0.4125    0.0000 C   0  0
   -0.7145   -0.4125    0.0000 N   0  0
    0.0000   -0.8250    0.0000 C   0  0
    1.4277    1.3767    0.0000 H   0  0
    1.9053    0.5525    0.0000 H   0  0
  1  2  1  0
  2  3  1  0
  2  4  1  0
  4  5  1  0
  5  6  2  0
  6  7  1  0
  6 16  1  0
  7  8  1  0
  8  9  2  0
  9 10  1  0
 10 11  2  0
 11 12  1  0
 12 13  1  0
 13 14  2  0
 14 10  1  0
 14 15  1  0
 15  7  2  0
 16 17  2  0
 17 18  1  0
 17 19  1  0
 18 23  1  0
 18 24  1  0
 19 20  2  0
 20 21  1  0
 21 22  2  0
 22  4  1  0
 22 16  1  0
M  END
> <CMPD_CHEMBLID>
CHEMBL1241492

> <STANDARD_TYPE>
IC50

> <RELATION>
=

> <STANDARD_VALUE>
13000

> <STANDARD_UNITS>
nM

> <Molecular_Weight>
295.29932

$$$$

  SciTegic11272012012D

 27 29  0  0  0  0            999 V2000
   -0.1742   -2.8725    0.0000 C   0  0
   -0.3790   -2.2450    0.0000 C   0  0
   -1.0247   -2.1088    0.0000 C   0  0
    0.1713   -1.6316    0.0000 N   0  0
    0.9918   -1.7179    0.0000 N   0  0
    1.3273   -0.9642    0.0000 C   0  0
    2.1348   -0.7925    0.0000 C   0  0
    2.7291   -1.3607    0.0000 C   0  0
    3.5209   -1.1288    0.0000 C   0  0
    3.7159   -0.3272    0.0000 C   0  0
    3.1193    0.2426    0.0000 C   0  0
    3.3128    1.0450    0.0000 N   0  0
    2.7150    1.6142    0.0000 S   0  0
    2.8697    2.2559    0.0000 O   0  0
    2.0819    1.4277    0.0000 O   0  0
    2.2368    2.0691    0.0000 C   0  0
    2.3275    0.0107    0.0000 C   0  0
    0.7145   -0.4125    0.0000 C   0  0
    0.7145    0.4125    0.0000 C   0  0
    1.4285    0.8267    0.0000 N   0  0
    0.0000    0.8250    0.0000 N   0  0
   -0.7145    0.4125    0.0000 C   0  0
   -0.7145   -0.4125    0.0000 N   0  0
    0.0000   -0.8250    0.0000 C   0  0
    1.4277    1.3767    0.0000 H   0  0
    1.9053    0.5525    0.0000 H   0  0
    3.8404    1.2005    0.0000 H   0  0
  1  2  1  0
  2  3  1  0
  2  4  1  0
  4  5  1  0
  5  6  2  0
  6  7  1  0
  6 18  1  0
  7  8  2  0
  8  9  1  0
  9 10  2  0
 10 11  1  0
 11 12  1  0
 11 17  2  0
 12 13  1  0
 12 27  1  0
 13 14  2  0
 13 15  2  0
 13 16  1  0
 17  7  1  0
 18 19  2  0
 19 20  1  0
 19 21  1  0
 20 25  1  0
 20 26  1  0
 21 22  2  0
 22 23  1  0
 23 24  2  0
 24  4  1  0
 24 18  1  0
M  END
> <CMPD_CHEMBLID>
CHEMBL1241948

> <STANDARD_TYPE>
IC50

> <RELATION>
=

> <STANDARD_VALUE>
13000

> <STANDARD_UNITS>
nM

> <Molecular_Weight>
346.40742

$$$$

  SciTegic11272012012D

 28 31  0  0  0  0            999 V2000
   -2.0519   -3.8375    0.0000 C   0  0
   -1.5746   -3.3817    0.0000 C   0  0
   -0.7828   -3.6136    0.0000 C   0  0
   -0.1861   -3.0438    0.0000 C   0  0
   -0.3810   -2.2450    0.0000 C   0  0
   -1.1730   -2.0103    0.0000 C   0  0
   -1.7697   -2.5801    0.0000 C   0  0
   -2.5614   -2.3465    0.0000 O   0  0
   -2.7554   -1.5442    0.0000 C   0  0
   -3.5472   -1.3106    0.0000 C   0  0
   -3.7423   -0.5089    0.0000 C   0  0
   -4.5341   -0.2770    0.0000 C   0  0
   -5.1308   -0.8468    0.0000 C   0  0
   -4.9357   -1.6484    0.0000 C   0  0
   -4.1440   -1.8803    0.0000 C   0  0
    0.1713   -1.6316    0.0000 C   0  0
    0.9918   -1.7179    0.0000 N   0  0
    1.3273   -0.9642    0.0000 N   0  0
    0.7145   -0.4125    0.0000 C   0  0
    0.7145    0.4125    0.0000 N   0  0
    0.0000    0.8250    0.0000 C   0  0
   -0.7145    0.4125    0.0000 N   0  0
   -0.7145   -0.4125    0.0000 C   0  0
   -1.4302   -0.8238    0.0000 N   0  0
    0.0000   -0.8250    0.0000 C   0  0
   -1.9062   -0.5481    0.0000 H   0  0
   -1.4312   -1.3738    0.0000 H   0  0
    1.8654   -0.8498    0.0000 H   0  0
  1  2  1  0
  2  3  2  0
  3  4  1  0
  4  5  2  0
  5  6  1  0
  5 16  1  0
  6  7  2  0
  7  2  1  0
  7  8  1  0
  8  9  1  0
  9 10  1  0
 10 11  2  0
 11 12  1  0
 12 13  2  0
 13 14  1  0
 14 15  2  0
 15 10  1  0
 16 17  2  0
 17 18  1  0
 18 19  1  0
 18 28  1  0
 19 20  2  0
 20 21  1  0
 21 22  2  0
 22 23  1  0
 23 24  1  0
 23 25  2  0
 24 26  1  0
 24 27  1  0
 25 16  1  0
 25 19  1  0
M  END
> <CMPD_CHEMBLID>
CHEMBL1242025

> <STANDARD_TYPE>
IC50

> <RELATION>
=

> <STANDARD_VALUE>
13000

> <STANDARD_UNITS>
nM

> <Molecular_Weight>
331.37118

$$$$

  SciTegic11272012012D

 24 27  0  0  0  0            999 V2000
   -0.1742   -2.8725    0.0000 C   0  0
   -0.3790   -2.2450    0.0000 C   0  0
   -1.0247   -2.1088    0.0000 C   0  0
    0.1713   -1.6316    0.0000 N   0  0
    0.9918   -1.7179    0.0000 N   0  0
    1.3273   -0.9642    0.0000 C   0  0
    2.1348   -0.7925    0.0000 C   0  0
    2.7291   -1.3607    0.0000 C   0  0
    3.5209   -1.1288    0.0000 C   0  0
    3.7159   -0.3272    0.0000 N   0  0
    4.4419    0.0639    0.0000 C   0  0
    4.2941    0.8756    0.0000 C   0  0
    3.4765    0.9858    0.0000 N   0  0
    3.1193    0.2426    0.0000 C   0  0
    2.3275    0.0107    0.0000 C   0  0
    0.7145   -0.4125    0.0000 C   0  0
    0.7145    0.4125    0.0000 C   0  0
    1.4285    0.8267    0.0000 N   0  0
    0.0000    0.8250    0.0000 N   0  0
   -0.7145    0.4125    0.0000 C   0  0
   -0.7145   -0.4125    0.0000 N   0  0
    0.0000   -0.8250    0.0000 C   0  0
    1.4277    1.3767    0.0000 H   0  0
    1.9053    0.5525    0.0000 H   0  0
  1  2  1  0
  2  3  1  0
  2  4  1  0
  4  5  1  0
  5  6  2  0
  6  7  1  0
  6 16  1  0
  7  8  1  0
  8  9  2  0
  9 10  1  0
 10 11  1  0
 11 12  2  0
 12 13  1  0
 13 14  2  0
 14 10  1  0
 14 15  1  0
 15  7  2  0
 16 17  2  0
 17 18  1  0
 17 19  1  0
 18 23  1  0
 18 24  1  0
 19 20  2  0
 20 21  1  0
 21 22  2  0
 22  4  1  0
 22 16  1  0
M  END
> <CMPD_CHEMBLID>
CHEMBL1242665

> <STANDARD_TYPE>
IC50

> <RELATION>
=

> <STANDARD_VALUE>
14000

> <STANDARD_UNITS>
nM

> <Molecular_Weight>
293.3265

$$$$

  SciTegic11272012012D

 43 44  0  0  0  0            999 V2000
    1.5679   -3.2207    0.0000 C   0  0
    2.1401   -2.8917    0.0000 N   0  0
    2.1412   -2.0663    0.0000 C   0  0
    1.4273   -1.6521    0.0000 C   0  0
    1.4285   -0.8267    0.0000 C   0  0
    0.7144   -0.4125    0.0000 C   0  0
    0.7144    0.4125    0.0000 C   0  0
    0.0000    0.8250    0.0000 C   0  0
   -0.7144    0.4125    0.0000 C   0  0
   -0.7144   -0.4125    0.0000 C   0  0
    0.0000   -0.8250    0.0000 C   0  0
    2.8541   -3.3059    0.0000 C   0  0
    3.4262   -2.9769    0.0000 O   0  0
    2.8529   -4.1313    0.0000 C   0  0
    2.1382   -4.5443    0.0000 C   0  0
    2.1379   -5.3697    0.0000 C   0  0
    1.4232   -5.7826    0.0000 C   0  0
    0.8516   -5.4526    0.0000 O   0  0
    1.4230   -6.6080    0.0000 O   0  0
    3.5669   -4.5455    0.0000 N   0  0
    3.5657   -5.3709    0.0000 C   0  0
    2.9936   -5.6999    0.0000 O   0  0
    4.2797   -5.7851    0.0000 C   0  0
    4.2785   -6.6105    0.0000 C   0  0
    4.9925   -7.0247    0.0000 C   0  0
    4.9926   -7.8496    0.0000 C   0  0
    5.7070   -8.2622    0.0000 C   0  0
    6.4215   -7.8497    0.0000 C   0  0
    6.4215   -7.0247    0.0000 C   0  0
    5.7070   -6.6122    0.0000 C   0  0
    7.1363   -8.2624    0.0000 P   0  0
    7.7077   -7.9323    0.0000 O   0  0
    7.1368   -9.0879    0.0000 O   0  0
    7.1372   -7.4210    0.0000 O   0  0
    4.9961   -5.3751    0.0000 N   0  0
    4.9998   -4.5497    0.0000 C   0  0
    5.5726   -4.2219    0.0000 O   0  0
    4.4295   -4.2174    0.0000 C   0  0
    5.4713   -5.6520    0.0000 H   0  0
    7.6137   -7.1462    0.0000 H   0  0
    7.6130   -9.3629    0.0000 H   0  0
    4.0437   -4.2713    0.0000 H   0  0
    0.9467   -6.8832    0.0000 H   0  0
  1  2  1  0
  2  3  1  0
  2 12  1  0
  3  4  1  0
  4  5  1  0
  5  6  1  0
  6  7  1  0
  7  8  1  0
  8  9  1  0
  9 10  1  0
 10 11  1  0
 11  6  1  0
 12 13  2  0
 12 14  1  0
 14 15  1  0
 14 20  1  0
 15 16  1  0
 16 17  1  0
 17 18  2  0
 17 19  1  0
 19 43  1  0
 20 21  1  0
 20 42  1  0
 21 22  2  0
 21 23  1  0
 23 24  1  0
 23 35  1  0
 24 25  1  0
 25 26  2  0
 26 27  1  0
 27 28  2  0
 28 29  1  0
 28 31  1  0
 29 30  2  0
 30 25  1  0
 31 32  2  0
 31 33  1  0
 31 34  1  0
 33 41  1  0
 34 40  1  0
 35 36  1  0
 35 39  1  0
 36 37  2  0
 36 38  1  0
M  END
> <CMPD_CHEMBLID>
CHEMBL57393

> <STANDARD_TYPE>
IC50

> <RELATION>
=

> <STANDARD_VALUE>
14000

> <STANDARD_UNITS>
nM

> <Molecular_Weight>
553.58486

$$$$

  SciTegic11272012012D

 40 44  0  0  0  0            999 V2000
   -2.0115   -4.4392    0.0000 F   0  0
   -1.4381   -4.1124    0.0000 C   0  0
   -1.4346   -3.4524    0.0000 F   0  0
   -2.0078   -3.7793    0.0000 F   0  0
   -0.7253   -4.5287    0.0000 C   0  0
   -0.7295   -5.3537    0.0000 C   0  0
   -0.0171   -5.7698    0.0000 C   0  0
    0.6994   -5.3609    0.0000 C   0  0
    0.7037   -4.5359    0.0000 C   0  0
    1.4198   -4.1253    0.0000 N   0  0
    1.4227   -3.2999    0.0000 C   0  0
    0.8523   -2.9680    0.0000 O   0  0
    2.1388   -2.8893    0.0000 N   0  0
    2.1419   -2.0639    0.0000 C   0  0
    2.8570   -1.6525    0.0000 C   0  0
    2.8583   -0.8275    0.0000 C   0  0
    2.1445   -0.4139    0.0000 C   0  0
    1.4293   -0.8252    0.0000 C   0  0
    1.4281   -1.6502    0.0000 C   0  0
    0.7144   -0.4125    0.0000 C   0  0
    0.7144    0.4125    0.0000 C   0  0
    0.0000    0.8250    0.0000 N   0  0
   -0.1713    1.6316    0.0000 C   0  0
   -0.9918    1.7178    0.0000 C   0  0
   -1.3273    0.9641    0.0000 N   0  0
   -0.7144    0.4125    0.0000 C   0  0
   -0.7144   -0.4125    0.0000 C   0  0
   -1.4285   -0.8267    0.0000 N   0  0
   -1.4273   -1.6521    0.0000 C   0  0
   -2.1413   -2.0663    0.0000 C   0  0
   -2.1414   -2.8913    0.0000 C   0  0
   -2.8558   -3.3039    0.0000 C   0  0
   -3.5703   -2.8914    0.0000 N   0  0
   -3.5703   -2.0664    0.0000 C   0  0
   -2.8559   -1.6539    0.0000 C   0  0
    0.0000   -0.8250    0.0000 N   0  0
   -0.0088   -4.1198    0.0000 C   0  0
   -1.9053   -0.5525    0.0000 H   0  0
    2.6143   -3.1659    0.0000 H   0  0
    1.8951   -4.4019    0.0000 H   0  0
  1  2  1  0
  2  3  1  0
  2  4  1  0
  2  5  1  0
  5  6  2  0
  6  7  1  0
  7  8  2  0
  8  9  1  0
  9 10  1  0
  9 37  2  0
 10 11  1  0
 10 40  1  0
 11 12  2  0
 11 13  1  0
 13 14  1  0
 13 39  1  0
 14 15  2  0
 15 16  1  0
 16 17  2  0
 17 18  1  0
 18 19  2  0
 18 20  1  0
 19 14  1  0
 20 21  2  0
 21 22  1  0
 22 23  1  0
 23 24  2  0
 24 25  1  0
 25 26  2  0
 26 22  1  0
 26 27  1  0
 27 28  1  0
 27 36  2  0
 28 29  1  0
 28 38  1  0
 29 30  1  0
 30 31  2  0
 31 32  1  0
 32 33  2  0
 33 34  1  0
 34 35  2  0
 35 30  1  0
 36 20  1  0
 37  5  1  0
M  END
> <CMPD_CHEMBLID>
CHEMBL1081198

> <STANDARD_TYPE>
IC50

> <RELATION>
=

> <STANDARD_VALUE>
14400

> <STANDARD_UNITS>
nM

> <Molecular_Weight>
503.47851

$$$$

  SciTegic11272012012D

 26 28  0  0  0  0            999 V2000
   -2.4505   -5.2116    0.0000 C   0  0
   -1.9741   -4.7548    0.0000 C   0  0
   -2.1705   -3.9530    0.0000 O   0  0
   -1.5746   -3.3817    0.0000 C   0  0
   -0.7828   -3.6136    0.0000 C   0  0
   -0.1861   -3.0438    0.0000 C   0  0
   -0.3810   -2.2450    0.0000 C   0  0
   -1.1730   -2.0103    0.0000 C   0  0
   -1.7697   -2.5801    0.0000 C   0  0
   -2.5614   -2.3465    0.0000 O   0  0
   -2.7166   -1.7050    0.0000 C   0  0
    0.1713   -1.6316    0.0000 C   0  0
    0.9918   -1.7179    0.0000 N   0  0
    1.3273   -0.9642    0.0000 N   0  0
    2.1337   -0.7943    0.0000 C   0  0
    2.6853   -1.4085    0.0000 C   0  0
    3.3311   -1.2725    0.0000 C   0  0
    0.7145   -0.4125    0.0000 C   0  0
    0.7145    0.4125    0.0000 N   0  0
    0.0000    0.8250    0.0000 C   0  0
   -0.7145    0.4125    0.0000 N   0  0
   -0.7145   -0.4125    0.0000 C   0  0
   -1.4302   -0.8238    0.0000 N   0  0
    0.0000   -0.8250    0.0000 C   0  0
   -1.9062   -0.5481    0.0000 H   0  0
   -1.4312   -1.3738    0.0000 H   0  0
  1  2  1  0
  2  3  1  0
  3  4  1  0
  4  5  2  0
  5  6  1  0
  6  7  2  0
  7  8  1  0
  7 12  1  0
  8  9  2  0
  9  4  1  0
  9 10  1  0
 10 11  1  0
 12 13  2  0
 13 14  1  0
 14 15  1  0
 14 18  1  0
 15 16  1  0
 16 17  2  0
 18 19  2  0
 19 20  1  0
 20 21  2  0
 21 22  1  0
 22 23  1  0
 22 24  2  0
 23 25  1  0
 23 26  1  0
 24 12  1  0
 24 18  1  0
M  END
> <CMPD_CHEMBLID>
CHEMBL1242569

> <STANDARD_TYPE>
IC50

> <RELATION>
=

> <STANDARD_VALUE>
14600

> <STANDARD_UNITS>
nM

> <Molecular_Weight>
325.36506

$$$$

  SciTegic11272012012D

 29 31  0  0  0  0            999 V2000
   -0.2704   -2.1220    0.0000 C   0  0
    0.1713   -1.6316    0.0000 C   0  0
    0.9918   -1.7178    0.0000 N   0  0
    1.3273   -0.9641    0.0000 N   0  0
    1.9729   -0.8269    0.0000 C   0  0
    0.7144   -0.4125    0.0000 C   0  0
    0.7144    0.4125    0.0000 N   0  0
    0.0000    0.8250    0.0000 N   0  0
   -0.7144    0.4125    0.0000 C   0  0
   -1.4302    0.8237    0.0000 N   0  0
   -2.1444    0.4100    0.0000 C   0  0
   -2.8604    0.8200    0.0000 C   0  0
   -3.5734    0.4050    0.0000 C   0  0
   -3.5706   -0.4200    0.0000 C   0  0
   -2.8546   -0.8300    0.0000 C   0  0
   -2.1416   -0.4150    0.0000 C   0  0
   -4.2840   -0.8352    0.0000 S   0  0
   -4.2815   -1.4952    0.0000 O   0  0
   -4.8543   -1.1674    0.0000 O   0  0
   -5.0005   -0.4254    0.0000 N   0  0
   -5.7140   -0.8406    0.0000 C   0  0
   -6.4305   -0.4308    0.0000 C   0  0
   -7.1439   -0.8460    0.0000 N   0  0
   -0.7144   -0.4125    0.0000 N   0  0
    0.0000   -0.8250    0.0000 C   0  0
   -7.6214   -0.5729    0.0000 H   0  0
   -7.1419   -1.3959    0.0000 H   0  0
   -5.0026    0.1246    0.0000 H   0  0
   -1.4311    1.3737    0.0000 H   0  0
  1  2  1  0
  2  3  2  0
  3  4  1  0
  4  5  1  0
  4  6  1  0
  6  7  2  0
  7  8  1  0
  8  9  2  0
  9 10  1  0
  9 24  1  0
 10 11  1  0
 10 29  1  0
 11 12  2  0
 12 13  1  0
 13 14  2  0
 14 15  1  0
 14 17  1  0
 15 16  2  0
 16 11  1  0
 17 18  2  0
 17 19  2  0
 17 20  1  0
 20 21  1  0
 20 28  1  0
 21 22  1  0
 22 23  1  0
 23 26  1  0
 23 27  1  0
 24 25  2  0
 25  2  1  0
 25  6  1  0
M  END
> <CMPD_CHEMBLID>
CHEMBL3237854

> <STANDARD_TYPE>
IC50

> <RELATION>
=

> <STANDARD_VALUE>
15000

> <STANDARD_UNITS>
nM

> <Molecular_Weight>
362.41012

$$$$

  SciTegic11272012012D

 26 29  0  0  0  0            999 V2000
    1.9982   -1.9833    0.0000 C   0  0
    1.4273   -1.6522    0.0000 C   0  0
    1.4285   -0.8267    0.0000 O   0  0
    0.7145   -0.4125    0.0000 C   0  0
    0.7145    0.4125    0.0000 C   0  0
    0.0000    0.8250    0.0000 C   0  0
   -0.7145    0.4125    0.0000 C   0  0
   -1.4290    0.8250    0.0000 C   0  0
   -2.1435    0.4125    0.0000 C   0  0
   -2.1435   -0.4125    0.0000 C   0  0
   -1.4290   -0.8250    0.0000 C   0  0
   -0.7145   -0.4125    0.0000 C   0  0
    0.0000   -0.8250    0.0000 C   0  0
   -2.8583    0.8252    0.0000 C   0  0
   -3.6011    0.4826    0.0000 N   0  0
   -4.1540    1.0949    0.0000 N   0  0
   -4.8104    1.0251    0.0000 C   0  0
   -3.7427    1.8095    0.0000 C   0  0
   -3.9987    2.5938    0.0000 N   0  0
   -3.4475    3.2077    0.0000 C   0  0
   -2.6403    3.0373    0.0000 N   0  0
   -2.3842    2.2531    0.0000 C   0  0
   -1.5762    2.0843    0.0000 N   0  0
   -2.9354    1.6391    0.0000 C   0  0
   -1.2094    2.4940    0.0000 H   0  0
   -1.4046    1.5617    0.0000 H   0  0
  1  2  1  0
  2  3  1  0
  3  4  1  0
  4  5  2  0
  5  6  1  0
  6  7  2  0
  7  8  1  0
  8  9  2  0
  9 10  1  0
  9 14  1  0
 10 11  2  0
 11 12  1  0
 12  7  1  0
 12 13  2  0
 13  4  1  0
 14 15  2  0
 15 16  1  0
 16 17  1  0
 16 18  1  0
 18 19  2  0
 19 20  1  0
 20 21  2  0
 21 22  1  0
 22 23  1  0
 22 24  2  0
 23 25  1  0
 23 26  1  0
 24 14  1  0
 24 18  1  0
M  END
> <CMPD_CHEMBLID>
CHEMBL1242661

> <STANDARD_TYPE>
IC50

> <RELATION>
=

> <STANDARD_VALUE>
15000

> <STANDARD_UNITS>
nM

> <Molecular_Weight>
319.36048

$$$$

  SciTegic11272012012D

 40 41  0  0  0  0            999 V2000
    4.1410   -3.2277    0.0000 C   0  0
    3.5705   -2.8959    0.0000 C   0  0
    2.8541   -3.3059    0.0000 C   0  0
    2.1401   -2.8917    0.0000 N   0  0
    2.1413   -2.0663    0.0000 C   0  0
    2.7134   -1.7373    0.0000 O   0  0
    1.4273   -1.6521    0.0000 C   0  0
    1.4285   -0.8267    0.0000 C   0  0
    2.1436   -0.4145    0.0000 C   0  0
    2.1460    0.4105    0.0000 C   0  0
    2.8617    0.8209    0.0000 C   0  0
    3.5749    0.4064    0.0000 C   0  0
    4.2918    0.8156    0.0000 O   0  0
    5.0049    0.3998    0.0000 P   0  0
    5.0018   -0.2601    0.0000 O   0  0
    5.7217    0.8090    0.0000 O   0  0
    4.2748   -0.0186    0.0000 O   0  0
    3.5726   -0.4186    0.0000 C   0  0
    2.8569   -0.8291    0.0000 C   0  0
    0.7109   -2.0621    0.0000 N   0  0
   -0.0026   -1.6472    0.0000 C   0  0
   -0.5755   -1.9750    0.0000 O   0  0
   -0.0004   -0.9872    0.0000 C   0  0
    2.8530   -4.1314    0.0000 C   0  0
    2.2808   -4.4604    0.0000 O   0  0
    3.5670   -4.5456    0.0000 N   0  0
    4.1391   -4.2166    0.0000 C   0  0
    3.5657   -5.3710    0.0000 C   0  0
    4.2797   -5.7852    0.0000 C   0  0
    4.2786   -6.6106    0.0000 C   0  0
    4.9926   -7.0248    0.0000 C   0  0
    4.9926   -7.8498    0.0000 C   0  0
    5.7071   -8.2623    0.0000 C   0  0
    6.4216   -7.8498    0.0000 C   0  0
    6.4216   -7.0249    0.0000 C   0  0
    5.7071   -6.6124    0.0000 C   0  0
    0.7089   -2.6121    0.0000 H   0  0
    4.2727   -0.5686    0.0000 H   0  0
    6.1968    0.5320    0.0000 H   0  0
    1.6633   -3.1659    0.0000 H   0  0
  1  2  1  0
  2  3  1  0
  3  4  1  0
  3 24  1  0
  4  5  1  0
  4 40  1  0
  5  6  2  0
  5  7  1  0
  7  8  1  0
  7 20  1  0
  8  9  1  0
  9 10  2  0
 10 11  1  0
 11 12  2  0
 12 13  1  0
 12 18  1  0
 13 14  1  0
 14 15  2  0
 14 16  1  0
 14 17  1  0
 16 39  1  0
 17 38  1  0
 18 19  2  0
 19  9  1  0
 20 21  1  0
 20 37  1  0
 21 22  2  0
 21 23  1  0
 24 25  2  0
 24 26  1  0
 26 27  1  0
 26 28  1  0
 28 29  1  0
 29 30  1  0
 30 31  1  0
 31 32  1  0
 32 33  1  0
 33 34  1  0
 34 35  1  0
 35 36  1  0
 36 31  1  0
M  END
> <CMPD_CHEMBLID>
CHEMBL301845

> <STANDARD_TYPE>
IC50

> <RELATION>
=

> <STANDARD_VALUE>
15000

> <STANDARD_UNITS>
nM

> <Molecular_Weight>
525.57476

$$$$

  SciTegic11272012012D

 43 47  0  0  0  0            999 V2000
    1.7541    4.7533    0.0000 N   0  0
    2.5753    4.8374    0.0000 C   0  0
    2.9112    5.5909    0.0000 C   0  0
    3.7318    5.6767    0.0000 C   0  0
    4.2163    5.0090    0.0000 C   0  0
    3.8803    4.2555    0.0000 C   0  0
    3.0597    4.1697    0.0000 C   0  0
    2.7251    3.4152    0.0000 N   0  0
    3.2108    2.7477    0.0000 C   0  0
    3.8671    2.8175    0.0000 O   0  0
    2.8762    1.9931    0.0000 C   0  0
    3.3619    1.3257    0.0000 C   0  0
    3.0278    0.5724    0.0000 C   0  0
    3.4398   -0.1423    0.0000 C   0  0
    2.8874   -0.7550    0.0000 C   0  0
    2.1444   -0.4129    0.0000 N   0  0
    2.2207    0.4014    0.0000 C   0  0
    1.4293   -0.8252    0.0000 S   0  0
    1.4291   -1.4852    0.0000 O   0  0
    2.0007   -1.1555    0.0000 O   0  0
    0.7144   -0.4125    0.0000 C   0  0
    0.7144    0.4125    0.0000 C   0  0
    0.0000    0.8250    0.0000 C   0  0
   -0.7144    0.4125    0.0000 C   0  0
   -1.4289    0.8250    0.0000 N   0  0
   -2.1434    0.4125    0.0000 C   0  0
   -2.1434   -0.4125    0.0000 N   0  0
   -1.4289   -0.8250    0.0000 C   0  0
   -1.4306   -1.6504    0.0000 N   0  0
   -2.1461   -2.0622    0.0000 C   0  0
   -2.1489   -2.8872    0.0000 C   0  0
   -2.8649   -3.2972    0.0000 C   0  0
   -3.5779   -2.8823    0.0000 C   0  0
   -3.5750   -2.0573    0.0000 C   0  0
   -2.8592   -1.6472    0.0000 C   0  0
   -4.2885   -1.6421    0.0000 C   0  0
   -4.8589   -1.3101    0.0000 C   0  0
   -0.7144   -0.4125    0.0000 C   0  0
    0.0000   -0.8250    0.0000 C   0  0
   -0.9548   -1.9263    0.0000 H   0  0
    2.1782    3.3570    0.0000 H   0  0
    1.4317    5.1990    0.0000 H   0  0
    1.5292    4.2515    0.0000 H   0  0
  1  2  1  0
  1 42  1  0
  1 43  1  0
  2  3  2  0
  3  4  1  0
  4  5  2  0
  5  6  1  0
  6  7  2  0
  7  2  1  0
  7  8  1  0
  8  9  1  0
  8 41  1  0
  9 10  2  0
  9 11  1  0
 11 12  2  0
 12 13  1  0
 13 14  1  0
 14 15  2  0
 15 16  1  0
 16 17  1  0
 16 18  1  0
 17 13  2  0
 18 19  2  0
 18 20  2  0
 18 21  1  0
 21 22  2  0
 22 23  1  0
 23 24  2  0
 24 25  1  0
 25 26  2  0
 26 27  1  0
 27 28  2  0
 28 29  1  0
 28 38  1  0
 29 30  1  0
 29 40  1  0
 30 31  2  0
 31 32  1  0
 32 33  2  0
 33 34  1  0
 34 35  2  0
 34 36  1  0
 35 30  1  0
 36 37  3  0
 38 24  1  0
 38 39  2  0
 39 21  1  0
M  END
> <CMPD_CHEMBLID>
CHEMBL3218001

> <STANDARD_TYPE>
IC50

> <RELATION>
=

> <STANDARD_VALUE>
15000

> <STANDARD_UNITS>
nM

> <Molecular_Weight>
534.58838

$$$$

  SciTegic11272012012D

 30 34  0  0  0  0            999 V2000
    1.8786    0.9146    0.0000 N   0  0
    2.4288    0.2993    0.0000 C   0  0
    3.2360    0.4696    0.0000 N   0  0
    3.7872   -0.1443    0.0000 C   0  0
    3.5311   -0.9285    0.0000 N   0  0
    2.7239   -1.0989    0.0000 C   0  0
    2.1727   -0.4850    0.0000 C   0  0
    1.4293   -0.8252    0.0000 C   0  0
    1.5040   -1.6398    0.0000 N   0  0
    2.3107   -1.8125    0.0000 N   0  0
    2.6434   -2.5664    0.0000 C   0  0
    2.1564   -3.2328    0.0000 C   0  0
    2.4884   -3.9882    0.0000 C   0  0
    2.0004   -4.6533    0.0000 C   0  0
    1.1802   -4.5632    0.0000 N   0  0
    0.8483   -3.8079    0.0000 C   0  0
    1.3363   -3.1428    0.0000 C   0  0
    0.7144   -0.4125    0.0000 C   0  0
    0.7144    0.4125    0.0000 C   0  0
    0.0000    0.8250    0.0000 N   0  0
   -0.7144    0.4125    0.0000 C   0  0
   -1.4290    0.8250    0.0000 C   0  0
   -2.1434    0.4125    0.0000 C   0  0
   -2.1434   -0.4125    0.0000 C   0  0
   -1.4290   -0.8250    0.0000 C   0  0
   -0.7144   -0.4125    0.0000 C   0  0
    0.0000   -0.8250    0.0000 C   0  0
    0.8549   -5.0066    0.0000 H   0  0
    2.0501    1.4372    0.0000 H   0  0
    1.3402    0.8020    0.0000 H   0  0
  1  2  1  0
  1 29  1  0
  1 30  1  0
  2  3  2  0
  3  4  1  0
  4  5  2  0
  5  6  1  0
  6  7  2  0
  7  2  1  0
  7  8  1  0
  8  9  2  0
  8 18  1  0
  9 10  1  0
 10  6  1  0
 10 11  1  0
 11 12  1  0
 12 13  1  0
 13 14  1  0
 14 15  1  0
 15 16  1  0
 15 28  1  0
 16 17  1  0
 17 12  1  0
 18 19  2  0
 19 20  1  0
 20 21  2  0
 21 22  1  0
 22 23  2  0
 23 24  1  0
 24 25  2  0
 25 26  1  0
 26 21  1  0
 26 27  2  0
 27 18  1  0
M  END
> <CMPD_CHEMBLID>
CHEMBL2030555

> <STANDARD_TYPE>
Ki

> <RELATION>
>

> <STANDARD_VALUE>
15000

> <STANDARD_UNITS>
nM

> <Molecular_Weight>
359.42764

$$$$

  SciTegic11272012012D

 20 22  0  0  0  0            999 V2000
   -0.3790   -2.2450    0.0000 N   0  0
    0.1713   -1.6316    0.0000 C   0  0
    0.9918   -1.7178    0.0000 N   0  0
    1.3273   -0.9642    0.0000 N   0  0
    0.7145   -0.4125    0.0000 C   0  0
    0.7145    0.4125    0.0000 C   0  0
    0.0000    0.8250    0.0000 C   0  0
   -0.7145    0.4125    0.0000 C   0  0
   -0.7145   -0.4125    0.0000 C   0  0
   -1.4293   -0.8252    0.0000 C   0  0
   -2.1445   -0.4139    0.0000 C   0  0
   -2.8583   -0.8275    0.0000 C   0  0
   -2.8570   -1.6526    0.0000 C   0  0
   -3.4281   -1.9834    0.0000 F   0  0
   -2.1419   -2.0639    0.0000 C   0  0
   -1.4280   -1.6502    0.0000 C   0  0
    0.0000   -0.8250    0.0000 C   0  0
    1.8654   -0.8498    0.0000 H   0  0
   -0.2083   -2.7679    0.0000 H   0  0
   -0.9171   -2.1315    0.0000 H   0  0
  1  2  1  0
  1 19  1  0
  1 20  1  0
  2  3  2  0
  3  4  1  0
  4  5  1  0
  4 18  1  0
  5  6  2  0
  6  7  1  0
  7  8  2  0
  8  9  1  0
  9 10  1  0
  9 17  2  0
 10 11  2  0
 11 12  1  0
 12 13  2  0
 13 14  1  0
 13 15  1  0
 15 16  2  0
 16 10  1  0
 17  2  1  0
 17  5  1  0
M  END
> <CMPD_CHEMBLID>
CHEMBL1971519

> <STANDARD_TYPE>
Ki

> <RELATION>
=

> <STANDARD_VALUE>
15848.93

> <STANDARD_UNITS>
nM

> <Molecular_Weight>
227.237

$$$$

  SciTegic11272012012D

 13 14  0  0  0  0            999 V2000
    1.2861   -0.7425    0.0000 Br  0  0
    0.7145   -0.4125    0.0000 C   0  0
    0.7145    0.4125    0.0000 C   0  0
    0.0000    0.8250    0.0000 N   0  0
   -0.7145    0.4125    0.0000 C   0  0
   -1.4987    0.6674    0.0000 N   0  0
   -1.9836    0.0000    0.0000 C   0  0
   -2.6436    0.0000    0.0000 O   0  0
   -1.4987   -0.6674    0.0000 N   0  0
   -0.7145   -0.4125    0.0000 C   0  0
    0.0000   -0.8250    0.0000 C   0  0
   -1.6686   -1.1906    0.0000 H   0  0
   -1.6686    1.1906    0.0000 H   0  0
  1  2  1  0
  2  3  2  0
  3  4  1  0
  4  5  2  0
  5  6  1  0
  6  7  1  0
  6 13  1  0
  7  8  2  0
  7  9  1  0
  9 10  1  0
  9 12  1  0
 10  5  1  0
 10 11  2  0
 11  2  1  0
M  END
> <CMPD_CHEMBLID>
CHEMBL1975921

> <STANDARD_TYPE>
Ki

> <RELATION>
=

> <STANDARD_VALUE>
15848.93

> <STANDARD_UNITS>
nM

> <Molecular_Weight>
214.01946

$$$$

  SciTegic11272012012D

 24 26  0  0  0  0            999 V2000
   -0.1742   -2.8725    0.0000 C   0  0
   -0.3790   -2.2450    0.0000 C   0  0
   -1.0247   -2.1088    0.0000 C   0  0
    0.1713   -1.6316    0.0000 N   0  0
    0.9918   -1.7179    0.0000 N   0  0
    1.3273   -0.9642    0.0000 C   0  0
    2.1348   -0.7925    0.0000 C   0  0
    2.7291   -1.3607    0.0000 C   0  0
    3.5209   -1.1288    0.0000 C   0  0
    3.7159   -0.3272    0.0000 C   0  0
    3.1193    0.2426    0.0000 C   0  0
    2.3275    0.0107    0.0000 C   0  0
    3.3128    1.0450    0.0000 C   0  0
    2.8348    1.5002    0.0000 O   0  0
    3.9459    1.2316    0.0000 C   0  0
    0.7145   -0.4125    0.0000 C   0  0
    0.7145    0.4125    0.0000 C   0  0
    1.4285    0.8267    0.0000 N   0  0
    0.0000    0.8250    0.0000 N   0  0
   -0.7145    0.4125    0.0000 C   0  0
   -0.7145   -0.4125    0.0000 N   0  0
    0.0000   -0.8250    0.0000 C   0  0
    1.4277    1.3767    0.0000 H   0  0
    1.9053    0.5525    0.0000 H   0  0
  1  2  1  0
  2  3  1  0
  2  4  1  0
  4  5  1  0
  5  6  2  0
  6  7  1  0
  6 16  1  0
  7  8  2  0
  8  9  1  0
  9 10  2  0
 10 11  1  0
 11 12  2  0
 11 13  1  0
 12  7  1  0
 13 14  2  0
 13 15  1  0
 16 17  2  0
 17 18  1  0
 17 19  1  0
 18 23  1  0
 18 24  1  0
 19 20  2  0
 20 21  1  0
 21 22  2  0
 22  4  1  0
 22 16  1  0
M  END
> <CMPD_CHEMBLID>
CHEMBL1241946

> <STANDARD_TYPE>
IC50

> <RELATION>
=

> <STANDARD_VALUE>
16000

> <STANDARD_UNITS>
nM

> <Molecular_Weight>
295.33908

$$$$

  SciTegic11272012012D

 37 40  0  0  0  0            999 V2000
    1.2861   -0.7425    0.0000 Cl  0  0
    0.7144   -0.4125    0.0000 C   0  0
    0.7144    0.4125    0.0000 C   0  0
    0.0000    0.8250    0.0000 C   0  0
   -0.7144    0.4125    0.0000 C   0  0
   -1.2861    0.7425    0.0000 Cl  0  0
   -0.7144   -0.4125    0.0000 C   0  0
   -1.4285   -0.8267    0.0000 C   0  0
   -1.4273   -1.6521    0.0000 N   0  0
   -2.1413   -2.0663    0.0000 C   0  0
   -2.1414   -2.8913    0.0000 N   0  0
   -2.8558   -3.3039    0.0000 C   0  0
   -3.5703   -2.8914    0.0000 C   0  0
   -4.2843   -3.3056    0.0000 C   0  0
   -4.8564   -2.9767    0.0000 O   0  0
   -4.2831   -4.1311    0.0000 N   0  0
   -4.9971   -4.5453    0.0000 C   0  0
   -4.9959   -5.3707    0.0000 C   0  0
   -5.7099   -5.7850    0.0000 C   0  0
   -5.7087   -6.6104    0.0000 N   0  0
   -5.0396   -7.0810    0.0000 C   0  0
   -5.2918   -7.8665    0.0000 C   0  0
   -6.1168   -7.8694    0.0000 O   0  0
   -6.3745   -7.0856    0.0000 C   0  0
   -7.0017   -6.8802    0.0000 O   0  0
   -3.5703   -2.0664    0.0000 C   0  0
   -4.2843   -1.6523    0.0000 N   0  0
   -4.2832   -0.8268    0.0000 C   0  0
   -4.9490   -0.3516    0.0000 C   0  0
   -4.6913    0.4321    0.0000 C   0  0
   -3.8663    0.4293    0.0000 C   0  0
   -3.6141   -0.3562    0.0000 C   0  0
   -2.8559   -1.6539    0.0000 N   0  0
    0.0000   -0.8250    0.0000 C   0  0
   -4.7611   -1.9264    0.0000 H   0  0
   -3.8063   -4.4052    0.0000 H   0  0
   -0.9505   -1.9263    0.0000 H   0  0
  1  2  1  0
  2  3  2  0
  3  4  1  0
  4  5  2  0
  5  6  1  0
  5  7  1  0
  7  8  1  0
  7 34  2  0
  8  9  1  0
  9 10  1  0
  9 37  1  0
 10 11  2  0
 11 12  1  0
 12 13  2  0
 13 14  1  0
 13 26  1  0
 14 15  2  0
 14 16  1  0
 16 17  1  0
 16 36  1  0
 17 18  1  0
 18 19  1  0
 19 20  1  0
 20 21  1  0
 21 22  1  0
 22 23  1  0
 23 24  1  0
 24 20  1  0
 24 25  2  0
 26 27  1  0
 26 33  2  0
 27 28  1  0
 27 35  1  0
 28 29  1  0
 29 30  1  0
 30 31  1  0
 31 32  1  0
 32 28  1  0
 33 10  1  0
 34  2  1  0
M  END
> <CMPD_CHEMBLID>
CHEMBL2312304

> <STANDARD_TYPE>
IC50

> <RELATION>
=

> <STANDARD_VALUE>
16360

> <STANDARD_UNITS>
nM

> <Molecular_Weight>
507.41282

$$$$

  SciTegic11272012012D

 27 30  0  0  0  0            999 V2000
   -2.8059   -3.7641    0.0000 C   0  0
   -2.1727   -3.9505    0.0000 O   0  0
   -1.5745   -3.3817    0.0000 C   0  0
   -0.7828   -3.6135    0.0000 C   0  0
   -0.1861   -3.0437    0.0000 C   0  0
   -0.3810   -2.2449    0.0000 C   0  0
   -1.1730   -2.0103    0.0000 C   0  0
   -1.7696   -2.5800    0.0000 C   0  0
    0.1713   -1.6316    0.0000 C   0  0
    0.9918   -1.7178    0.0000 N   0  0
    1.3273   -0.9641    0.0000 N   0  0
    0.7144   -0.4125    0.0000 C   0  0
    0.7144    0.4125    0.0000 N   0  0
    0.0000    0.8250    0.0000 C   0  0
   -0.7144    0.4125    0.0000 N   0  0
   -0.7144   -0.4125    0.0000 C   0  0
   -1.4302   -0.8238    0.0000 N   0  0
   -2.1444   -0.4100    0.0000 C   0  0
   -2.8604   -0.8200    0.0000 C   0  0
   -3.5734   -0.4051    0.0000 C   0  0
   -3.5706    0.4199    0.0000 C   0  0
   -2.8546    0.8299    0.0000 C   0  0
   -2.8524    1.4899    0.0000 Cl  0  0
   -2.1416    0.4150    0.0000 C   0  0
    0.0000   -0.8250    0.0000 C   0  0
   -1.4311   -1.3738    0.0000 H   0  0
    1.2668   -2.1941    0.0000 H   0  0
  1  2  1  0
  2  3  1  0
  3  4  2  0
  4  5  1  0
  5  6  2  0
  6  7  1  0
  6  9  1  0
  7  8  2  0
  8  3  1  0
  9 10  1  0
 10 11  1  0
 10 27  1  0
 11 12  2  0
 12 13  1  0
 13 14  2  0
 14 15  1  0
 15 16  2  0
 16 17  1  0
 16 25  1  0
 17 18  1  0
 17 26  1  0
 18 19  2  0
 19 20  1  0
 20 21  2  0
 21 22  1  0
 22 23  1  0
 22 24  2  0
 24 18  1  0
 25  9  2  0
 25 12  1  0
M  END
> <CMPD_CHEMBLID>
CHEMBL332971

> <STANDARD_TYPE>
IC50

> <RELATION>
=

> <STANDARD_VALUE>
16500

> <STANDARD_UNITS>
nM

> <Molecular_Weight>
351.78966

$$$$

  SciTegic11272012012D

 39 40  0  0  0  0            999 V2000
    4.1410   -3.2277    0.0000 C   0  0
    3.5705   -2.8959    0.0000 C   0  0
    2.8541   -3.3059    0.0000 C   0  0
    2.1401   -2.8917    0.0000 N   0  0
    2.1413   -2.0663    0.0000 C   0  0
    2.7134   -1.7373    0.0000 O   0  0
    1.4273   -1.6521    0.0000 C   0  0
    1.4285   -0.8267    0.0000 C   0  0
    2.1436   -0.4145    0.0000 C   0  0
    2.1460    0.4105    0.0000 C   0  0
    2.8617    0.8209    0.0000 C   0  0
    3.5749    0.4064    0.0000 C   0  0
    3.5726   -0.4186    0.0000 C   0  0
    2.8569   -0.8291    0.0000 C   0  0
    4.2909    0.8171    0.0000 P   0  0
    4.8615    0.4853    0.0000 O   0  0
    4.2938    1.6425    0.0000 O   0  0
    4.2895   -0.0244    0.0000 O   0  0
    0.7109   -2.0621    0.0000 N   0  0
   -0.0026   -1.6472    0.0000 C   0  0
   -0.5755   -1.9750    0.0000 O   0  0
   -0.0004   -0.9872    0.0000 C   0  0
    2.8530   -4.1314    0.0000 C   0  0
    2.2808   -4.4604    0.0000 O   0  0
    3.5670   -4.5456    0.0000 N   0  0
    4.1391   -4.2166    0.0000 C   0  0
    3.5657   -5.3710    0.0000 C   0  0
    4.2797   -5.7852    0.0000 C   0  0
    4.2786   -6.6106    0.0000 C   0  0
    4.9926   -7.0248    0.0000 C   0  0
    4.9926   -7.8498    0.0000 C   0  0
    5.7071   -8.2623    0.0000 C   0  0
    6.4216   -7.8498    0.0000 C   0  0
    6.4216   -7.0249    0.0000 C   0  0
    5.7071   -6.6124    0.0000 C   0  0
    0.7089   -2.6121    0.0000 H   0  0
    4.7651   -0.3005    0.0000 H   0  0
    4.7709    1.9162    0.0000 H   0  0
    1.6633   -3.1659    0.0000 H   0  0
  1  2  1  0
  2  3  1  0
  3  4  1  0
  3 23  1  0
  4  5  1  0
  4 39  1  0
  5  6  2  0
  5  7  1  0
  7  8  1  0
  7 19  1  0
  8  9  1  0
  9 10  2  0
 10 11  1  0
 11 12  2  0
 12 13  1  0
 12 15  1  0
 13 14  2  0
 14  9  1  0
 15 16  2  0
 15 17  1  0
 15 18  1  0
 17 38  1  0
 18 37  1  0
 19 20  1  0
 19 36  1  0
 20 21  2  0
 20 22  1  0
 23 24  2  0
 23 25  1  0
 25 26  1  0
 25 27  1  0
 27 28  1  0
 28 29  1  0
 29 30  1  0
 30 31  1  0
 31 32  1  0
 32 33  1  0
 33 34  1  0
 34 35  1  0
 35 30  1  0
M  END
> <CMPD_CHEMBLID>
CHEMBL58421

> <STANDARD_TYPE>
IC50

> <RELATION>
=

> <STANDARD_VALUE>
17000

> <STANDARD_UNITS>
nM

> <Molecular_Weight>
509.57536

$$$$

  SciTegic11272012012D

 23 25  0  0  0  0            999 V2000
   -0.1742   -2.8725    0.0000 C   0  0
   -0.3790   -2.2450    0.0000 C   0  0
   -1.0247   -2.1088    0.0000 C   0  0
    0.1713   -1.6316    0.0000 N   0  0
    0.9918   -1.7179    0.0000 N   0  0
    1.3273   -0.9642    0.0000 C   0  0
    2.1348   -0.7925    0.0000 C   0  0
    2.7291   -1.3607    0.0000 C   0  0
    3.5209   -1.1288    0.0000 C   0  0
    3.7159   -0.3272    0.0000 C   0  0
    3.1193    0.2426    0.0000 C   0  0
    2.3275    0.0107    0.0000 C   0  0
    3.3145    1.0446    0.0000 C   0  0
    3.4705    1.6859    0.0000 N   0  0
    0.7145   -0.4125    0.0000 C   0  0
    0.7145    0.4125    0.0000 C   0  0
    1.4285    0.8267    0.0000 N   0  0
    0.0000    0.8250    0.0000 N   0  0
   -0.7145    0.4125    0.0000 C   0  0
   -0.7145   -0.4125    0.0000 N   0  0
    0.0000   -0.8250    0.0000 C   0  0
    1.4277    1.3767    0.0000 H   0  0
    1.9053    0.5525    0.0000 H   0  0
  1  2  1  0
  2  3  1  0
  2  4  1  0
  4  5  1  0
  5  6  2  0
  6  7  1  0
  6 15  1  0
  7  8  2  0
  8  9  1  0
  9 10  2  0
 10 11  1  0
 11 12  2  0
 11 13  1  0
 12  7  1  0
 13 14  3  0
 15 16  2  0
 16 17  1  0
 16 18  1  0
 17 22  1  0
 17 23  1  0
 18 19  2  0
 19 20  1  0
 20 21  2  0
 21  4  1  0
 21 15  1  0
M  END
> <CMPD_CHEMBLID>
CHEMBL1241679

> <STANDARD_TYPE>
IC50

> <RELATION>
=

> <STANDARD_VALUE>
17000

> <STANDARD_UNITS>
nM

> <Molecular_Weight>
278.31186

$$$$

  SciTegic11272012012D

 35 38  0  0  0  0            999 V2000
    2.1413   -2.0663    0.0000 O   0  0
    1.4273   -1.6521    0.0000 N   0  0
    1.4285   -0.8267    0.0000 C   0  0
    2.0006   -0.4977    0.0000 O   0  0
    0.7144   -0.4125    0.0000 C   0  0
    0.7144    0.4125    0.0000 C   0  0
    0.0000    0.8250    0.0000 C   0  0
   -0.7144    0.4125    0.0000 C   0  0
   -0.7144   -0.4125    0.0000 C   0  0
    0.0000   -0.8250    0.0000 C   0  0
   -1.4302    0.8237    0.0000 C   0  0
   -1.4313    1.4837    0.0000 O   0  0
   -2.1444    0.4100    0.0000 N   0  0
   -2.8602    0.8213    0.0000 C   0  0
   -3.5747    0.4088    0.0000 C   0  0
   -4.2892    0.8213    0.0000 C   0  0
   -4.2892    1.6463    0.0000 C   0  0
   -3.5747    2.0588    0.0000 C   0  0
   -3.5731    2.8843    0.0000 N   0  0
   -2.8576    3.2960    0.0000 C   0  0
   -2.7790    4.1101    0.0000 N   0  0
   -1.9714    4.2789    0.0000 C   0  0
   -1.5614    3.5630    0.0000 C   0  0
   -2.1155    2.9518    0.0000 S   0  0
   -0.7408    3.4739    0.0000 C   0  0
   -0.2070    4.0994    0.0000 C   0  0
    0.6042    3.9488    0.0000 C   0  0
    0.8794    3.1711    0.0000 C   0  0
    0.3434    2.5439    0.0000 N   0  0
   -0.4677    2.6944    0.0000 C   0  0
   -2.8602    1.6463    0.0000 C   0  0
   -4.0489    3.1600    0.0000 H   0  0
   -2.1435   -0.1400    0.0000 H   0  0
    0.9505   -1.9263    0.0000 H   0  0
    2.1405   -2.6163    0.0000 H   0  0
  1  2  1  0
  1 35  1  0
  2  3  1  0
  2 34  1  0
  3  4  2  0
  3  5  1  0
  5  6  2  0
  6  7  1  0
  7  8  2  0
  8  9  1  0
  8 11  1  0
  9 10  2  0
 10  5  1  0
 11 12  2  0
 11 13  1  0
 13 14  1  0
 13 33  1  0
 14 15  2  0
 15 16  1  0
 16 17  2  0
 17 18  1  0
 18 19  1  0
 18 31  2  0
 19 20  1  0
 19 32  1  0
 20 21  2  0
 21 22  1  0
 22 23  2  0
 23 24  1  0
 23 25  1  0
 24 20  1  0
 25 26  2  0
 26 27  1  0
 27 28  2  0
 28 29  1  0
 29 30  2  0
 30 25  1  0
 31 14  1  0
M  END
> <CMPD_CHEMBLID>
CHEMBL475051

> <STANDARD_TYPE>
IC50

> <RELATION>
=

> <STANDARD_VALUE>
17000

> <STANDARD_UNITS>
nM

> <Molecular_Weight>
431.46708

$$$$

  SciTegic11272012012D

 26 29  0  0  0  0            999 V2000
    1.1968   -4.4819    0.0000 C   0  0
    0.6616   -4.0957    0.0000 C   0  0
   -0.1222   -4.3533    0.0000 C   0  0
   -0.6094   -3.6874    0.0000 C   0  0
   -1.2694   -3.6857    0.0000 C   0  0
   -0.1229   -3.0298    0.0000 C   0  0
   -0.3790   -2.2450    0.0000 C   0  0
    0.1713   -1.6316    0.0000 C   0  0
    0.9918   -1.7178    0.0000 C   0  0
    1.3218   -2.2894    0.0000 O   0  0
    1.3273   -0.9642    0.0000 N   0  0
    0.7145   -0.4125    0.0000 C   0  0
    0.7145    0.4125    0.0000 C   0  0
    0.0000    0.8250    0.0000 C   0  0
   -0.7145    0.4125    0.0000 C   0  0
   -0.7145   -0.4125    0.0000 C   0  0
    0.0000   -0.8250    0.0000 C   0  0
   -1.4293    0.8252    0.0000 C   0  0
   -1.4307    1.6502    0.0000 C   0  0
   -2.1459    2.0617    0.0000 C   0  0
   -2.8597    1.6480    0.0000 C   0  0
   -2.8583    0.8230    0.0000 N   0  0
   -2.1432    0.4116    0.0000 C   0  0
    0.6589   -3.2707    0.0000 N   0  0
    1.1008   -2.9433    0.0000 H   0  0
    1.8654   -0.8498    0.0000 H   0  0
  1  2  1  0
  2  3  2  0
  3  4  1  0
  4  5  1  0
  4  6  2  0
  6  7  1  0
  6 24  1  0
  7  8  2  0
  8  9  1  0
  9 10  2  0
  9 11  1  0
 11 12  1  0
 11 26  1  0
 12 13  2  0
 13 14  1  0
 14 15  2  0
 15 16  1  0
 15 18  1  0
 16 17  2  0
 17  8  1  0
 17 12  1  0
 18 19  2  0
 19 20  1  0
 20 21  2  0
 21 22  1  0
 22 23  2  0
 23 18  1  0
 24  2  1  0
 24 25  1  0
M  END
> <CMPD_CHEMBLID>
CHEMBL602074

> <STANDARD_TYPE>
IC50

> <RELATION>
=

> <STANDARD_VALUE>
17000

> <STANDARD_UNITS>
nM

> <Molecular_Weight>
315.36848

$$$$

  SciTegic11272012012D

 40 45  0  0  0  0            999 V2000
    2.1455    0.2461    0.0000 C   0  0
    2.1445   -0.4139    0.0000 C   0  0
    2.8583   -0.8275    0.0000 C   0  0
    2.8570   -1.6525    0.0000 C   0  0
    2.1419   -2.0639    0.0000 C   0  0
    1.4281   -1.6502    0.0000 C   0  0
    1.4293   -0.8252    0.0000 C   0  0
    0.7144   -0.4125    0.0000 N   0  0
    0.7144    0.4125    0.0000 C   0  0
    0.0000    0.8250    0.0000 N   0  0
   -0.7144    0.4125    0.0000 C   0  0
   -1.4290    0.8250    0.0000 C   0  0
   -2.1434    0.4125    0.0000 C   0  0
   -2.1434   -0.4125    0.0000 C   0  0
   -1.4290   -0.8250    0.0000 C   0  0
   -1.4290   -1.4850    0.0000 C   0  0
   -0.7144   -0.4125    0.0000 C   0  0
    0.0000   -0.8250    0.0000 C   0  0
    0.0000   -1.4850    0.0000 O   0  0
    1.4285    0.8267    0.0000 C   0  0
    1.4273    1.6521    0.0000 N   0  0
    0.7583    2.1228    0.0000 N   0  0
    1.0106    2.9083    0.0000 C   0  0
    0.5233    3.5745    0.0000 C   0  0
   -0.2985    3.5472    0.0000 C   0  0
   -0.7341    4.2479    0.0000 C   0  0
   -0.3451    4.9754    0.0000 C   0  0
    0.4795    5.0023    0.0000 C   0  0
    0.8702    5.7295    0.0000 O   0  0
    0.9150    4.3017    0.0000 C   0  0
    1.8352    2.9109    0.0000 C   0  0
    2.3852    3.5258    0.0000 C   0  0
    2.1291    4.3106    0.0000 N   0  0
    3.1927    3.3570    0.0000 N   0  0
    3.4503    2.5732    0.0000 C   0  0
    2.9003    1.9583    0.0000 N   0  0
    2.0928    2.1271    0.0000 C   0  0
    2.4963    4.7200    0.0000 H   0  0
    1.5909    4.4241    0.0000 H   0  0
    1.4199    5.7466    0.0000 H   0  0
  1  2  1  0
  2  3  2  0
  3  4  1  0
  4  5  2  0
  5  6  1  0
  6  7  2  0
  7  2  1  0
  7  8  1  0
  8  9  1  0
  9 10  2  0
  9 20  1  0
 10 11  1  0
 11 12  2  0
 12 13  1  0
 13 14  2  0
 14 15  1  0
 15 16  1  0
 15 17  2  0
 17 11  1  0
 17 18  1  0
 18  8  1  0
 18 19  2  0
 20 21  1  0
 21 22  1  0
 22 23  2  0
 23 24  1  0
 23 31  1  0
 24 25  2  0
 25 26  1  0
 26 27  2  0
 27 28  1  0
 28 29  1  0
 28 30  2  0
 29 40  1  0
 30 24  1  0
 31 32  2  0
 32 33  1  0
 32 34  1  0
 33 38  1  0
 33 39  1  0
 34 35  2  0
 35 36  1  0
 36 37  2  0
 37 21  1  0
 37 31  1  0
M  END
> <CMPD_CHEMBLID>
CHEMBL1241767

> <STANDARD_TYPE>
IC50

> <RELATION>
=

> <STANDARD_VALUE>
17000

> <STANDARD_UNITS>
nM

> <Molecular_Weight>
489.52792

$$$$

  SciTegic11272012012D

 32 35  0  0  0  0            999 V2000
    1.4302   -0.8237    0.0000 O   0  0
    0.7144   -0.4125    0.0000 C   0  0
    0.7144    0.4125    0.0000 C   0  0
    0.0000    0.8250    0.0000 C   0  0
   -0.0017    1.6504    0.0000 O   0  0
   -0.7171    2.0622    0.0000 C   0  0
   -0.7188    2.8876    0.0000 C   0  0
   -0.1478    3.2186    0.0000 O   0  0
   -1.4343    3.2993    0.0000 N   0  0
   -1.4360    4.1248    0.0000 C   0  0
   -0.7215    4.5373    0.0000 C   0  0
   -0.7216    5.3623    0.0000 C   0  0
   -1.4361    5.7748    0.0000 C   0  0
   -2.1505    5.3623    0.0000 C   0  0
   -2.1505    4.5373    0.0000 C   0  0
   -2.7221    4.2073    0.0000 Br  0  0
   -0.7144    0.4125    0.0000 C   0  0
   -0.7144   -0.4125    0.0000 C   0  0
   -1.4290   -0.8250    0.0000 O   0  0
   -1.4290   -1.6500    0.0000 C   0  0
   -0.7144   -2.0625    0.0000 C   0  0
    0.0000   -1.6500    0.0000 C   0  0
    0.5716   -1.9800    0.0000 O   0  0
    0.0000   -0.8250    0.0000 C   0  0
   -2.1437   -2.0627    0.0000 C   0  0
   -2.8590   -1.6514    0.0000 C   0  0
   -3.5727   -2.0650    0.0000 C   0  0
   -3.5714   -2.8900    0.0000 C   0  0
   -2.8563   -3.3014    0.0000 C   0  0
   -2.1425   -2.8878    0.0000 C   0  0
   -1.9101    3.0235    0.0000 H   0  0
    1.9061   -0.5481    0.0000 H   0  0
  1  2  1  0
  1 32  1  0
  2  3  2  0
  3  4  1  0
  4  5  1  0
  4 17  2  0
  5  6  1  0
  6  7  1  0
  7  8  2  0
  7  9  1  0
  9 10  1  0
  9 31  1  0
 10 11  2  0
 11 12  1  0
 12 13  2  0
 13 14  1  0
 14 15  2  0
 15 10  1  0
 15 16  1  0
 17 18  1  0
 18 19  1  0
 19 20  1  0
 20 21  2  0
 20 25  1  0
 21 22  1  0
 22 23  2  0
 22 24  1  0
 24  2  1  0
 24 18  2  0
 25 26  2  0
 26 27  1  0
 27 28  2  0
 28 29  1  0
 29 30  2  0
 30 25  1  0
M  END
> <CMPD_CHEMBLID>
CHEMBL2408503

> <STANDARD_TYPE>
IC50

> <RELATION>
=

> <STANDARD_VALUE>
17600

> <STANDARD_UNITS>
nM

> <Molecular_Weight>
466.28084

$$$$

  SciTegic11272012012D

 34 38  0  0  0  0            999 V2000
    5.5711    0.7545    0.0000 C   0  0
    5.0007    0.4225    0.0000 N   0  0
    5.0035   -0.4026    0.0000 C   0  0
    4.2905   -0.8175    0.0000 C   0  0
    3.5745   -0.4075    0.0000 N   0  0
    3.5717    0.4175    0.0000 C   0  0
    4.2848    0.8325    0.0000 C   0  0
    2.8602   -0.8213    0.0000 N   0  0
    2.1445   -0.4100    0.0000 C   0  0
    2.1433    0.2500    0.0000 O   0  0
    1.4302   -0.8238    0.0000 N   0  0
    0.7145   -0.4125    0.0000 C   0  0
    0.7145    0.4125    0.0000 C   0  0
    0.0000    0.8250    0.0000 C   0  0
   -0.7145    0.4125    0.0000 C   0  0
   -0.7145   -0.4125    0.0000 C   0  0
   -1.3273   -0.9642    0.0000 C   0  0
   -2.1468   -1.0499    0.0000 N   0  0
   -2.3183   -1.8570    0.0000 N   0  0
   -1.6038   -2.2694    0.0000 C   0  0
   -1.5174   -3.0903    0.0000 C   0  0
   -0.7733   -3.4315    0.0000 S   0  0
   -0.8810   -4.2494    0.0000 C   0  0
   -0.4022   -4.7038    0.0000 C   0  0
   -1.6922   -4.3998    0.0000 N   0  0
   -2.0859   -3.6748    0.0000 C   0  0
   -2.7397   -3.5846    0.0000 C   0  0
   -0.9918   -1.7179    0.0000 C   0  0
   -0.1713   -1.6316    0.0000 C   0  0
    0.2704   -2.1221    0.0000 O   0  0
    0.0000   -0.8250    0.0000 C   0  0
   -2.8208   -2.0806    0.0000 H   0  0
    1.4312   -1.3738    0.0000 H   0  0
    2.8612   -1.3713    0.0000 H   0  0
  1  2  1  0
  2  3  1  0
  3  4  1  0
  4  5  1  0
  5  6  1  0
  5  8  1  0
  6  7  1  0
  7  2  1  0
  8  9  1  0
  8 34  1  0
  9 10  2  0
  9 11  1  0
 11 12  1  0
 11 33  1  0
 12 13  2  0
 13 14  1  0
 14 15  2  0
 15 16  1  0
 16 17  1  0
 17 18  2  0
 18 19  1  0
 19 20  1  0
 19 32  1  0
 20 21  1  0
 20 28  2  0
 21 22  1  0
 22 23  1  0
 23 24  1  0
 23 25  2  0
 25 26  1  0
 26 21  2  0
 26 27  1  0
 28 17  1  0
 28 29  1  0
 29 30  2  0
 29 31  1  0
 31 12  1  0
 31 16  2  0
M  END
> <CMPD_CHEMBLID>
CHEMBL325023

> <STANDARD_TYPE>
IC50

> <RELATION>
=

> <STANDARD_VALUE>
17600

> <STANDARD_UNITS>
nM

> <Molecular_Weight>
437.51802

$$$$

  SciTegic11272012012D

 25 27  0  0  0  0            999 V2000
    3.3555   -4.4475    0.0000 C   0  0
    2.7537   -4.7188    0.0000 C   0  0
    2.0833   -4.2372    0.0000 O   0  0
    1.3308   -4.5765    0.0000 C   0  0
    1.2652   -5.2333    0.0000 O   0  0
    0.6616   -4.0957    0.0000 C   0  0
   -0.1222   -4.3533    0.0000 C   0  0
   -0.3241   -4.9816    0.0000 C   0  0
   -0.6094   -3.6874    0.0000 N   0  0
   -0.1229   -3.0298    0.0000 C   0  0
   -0.3790   -2.2450    0.0000 C   0  0
    0.1713   -1.6316    0.0000 C   0  0
    0.9918   -1.7179    0.0000 C   0  0
    1.3218   -2.2894    0.0000 O   0  0
    1.3273   -0.9642    0.0000 N   0  0
    0.7145   -0.4125    0.0000 C   0  0
    0.7145    0.4125    0.0000 C   0  0
    0.0000    0.8250    0.0000 C   0  0
   -0.7145    0.4125    0.0000 C   0  0
   -0.7145   -0.4125    0.0000 C   0  0
    0.0000   -0.8250    0.0000 C   0  0
    0.6589   -3.2707    0.0000 C   0  0
    1.1892   -2.8779    0.0000 C   0  0
    1.8654   -0.8498    0.0000 H   0  0
   -1.1594   -3.6860    0.0000 H   0  0
  1  2  1  0
  2  3  1  0
  3  4  1  0
  4  5  2  0
  4  6  1  0
  6  7  2  0
  7  8  1  0
  7  9  1  0
  9 10  1  0
  9 25  1  0
 10 11  1  0
 10 22  2  0
 11 12  2  0
 12 13  1  0
 13 14  2  0
 13 15  1  0
 15 16  1  0
 15 24  1  0
 16 17  2  0
 17 18  1  0
 18 19  2  0
 19 20  1  0
 20 21  2  0
 21 12  1  0
 21 16  1  0
 22  6  1  0
 22 23  1  0
M  END
> <CMPD_CHEMBLID>
CHEMBL86943

> <STANDARD_TYPE>
IC50

> <RELATION>
=

> <STANDARD_VALUE>
19000

> <STANDARD_UNITS>
nM

> <Molecular_Weight>
310.34712

$$$$

  SciTegic11272012012D

 12 13  0  0  0  0            999 V2000
    1.4302   -0.8238    0.0000 N   0  0
    0.7145   -0.4125    0.0000 C   0  0
    0.7145    0.4125    0.0000 N   0  0
    0.0000    0.8250    0.0000 C   0  0
   -0.7145    0.4125    0.0000 N   0  0
   -0.7145   -0.4125    0.0000 C   0  0
   -1.3273   -0.9642    0.0000 S   0  0
   -0.9918   -1.7179    0.0000 C   0  0
   -0.1713   -1.6316    0.0000 C   0  0
    0.0000   -0.8250    0.0000 C   0  0
    1.9062   -0.5481    0.0000 H   0  0
    1.4312   -1.3738    0.0000 H   0  0
  1  2  1  0
  1 11  1  0
  1 12  1  0
  2  3  2  0
  3  4  1  0
  4  5  2  0
  5  6  1  0
  6  7  1  0
  7  8  1  0
  8  9  2  0
  9 10  1  0
 10  2  1  0
 10  6  2  0
M  END
> <CMPD_CHEMBLID>
CHEMBL1972934

> <STANDARD_TYPE>
Ki

> <RELATION>
=

> <STANDARD_VALUE>
19952.62

> <STANDARD_UNITS>
nM

> <Molecular_Weight>
151.189

$$$$

  SciTegic11272012012D

 19 21  0  0  0  0            999 V2000
    1.7714   -2.3623    0.0000 C   0  0
    1.5302   -1.7479    0.0000 C   0  0
    2.0446   -1.1029    0.0000 C   0  0
    1.7432   -0.3349    0.0000 C   0  0
    0.9269   -0.2115    0.0000 C   0  0
    0.7433    0.5928    0.0000 N   0  0
    0.0000    0.9507    0.0000 C   0  0
    0.0613    1.7740    0.0000 C   0  0
   -0.6203    2.2388    0.0000 C   0  0
   -1.3636    1.8808    0.0000 C   0  0
   -1.4253    1.0581    0.0000 C   0  0
   -0.7433    0.5927    0.0000 C   0  0
   -0.9269   -0.2116    0.0000 N   0  0
   -0.4125   -0.8566    0.0000 C   0  0
   -0.6989   -1.4512    0.0000 O   0  0
    0.4125   -0.8566    0.0000 C   0  0
    0.7144   -1.6250    0.0000 C   0  0
   -1.4631   -0.3340    0.0000 H   0  0
    1.1733    0.9357    0.0000 H   0  0
  1  2  1  0
  2  3  2  0
  3  4  1  0
  4  5  2  0
  5  6  1  0
  6  7  1  0
  6 19  1  0
  7  8  2  0
  8  9  1  0
  9 10  2  0
 10 11  1  0
 11 12  2  0
 12  7  1  0
 12 13  1  0
 13 14  1  0
 13 18  1  0
 14 15  2  0
 14 16  1  0
 16  5  1  0
 16 17  2  0
 17  2  1  0
M  END
> <CMPD_CHEMBLID>
CHEMBL1970873

> <STANDARD_TYPE>
Ki

> <RELATION>
>

> <STANDARD_VALUE>
19952.62

> <STANDARD_UNITS>
nM

> <Molecular_Weight>
224.25788

$$$$

  SciTegic11272012012D

 34 38  0  0  0  0            999 V2000
    8.4377    3.2072    0.0000 C   0  0
    7.8651    2.8790    0.0000 N   0  0
    7.1519    3.2937    0.0000 C   0  0
    6.4361    2.8835    0.0000 C   0  0
    6.4335    2.0584    0.0000 N   0  0
    7.1467    1.6437    0.0000 C   0  0
    7.8625    2.0540    0.0000 C   0  0
    5.7181    1.6469    0.0000 C   0  0
    5.0042    2.0605    0.0000 C   0  0
    4.2891    1.6491    0.0000 C   0  0
    4.2878    0.8241    0.0000 C   0  0
    3.5731    0.4110    0.0000 N   0  0
    3.5730   -0.4144    0.0000 C   0  0
    4.1446   -0.7444    0.0000 O   0  0
    2.8583   -0.8275    0.0000 C   0  0
    2.1445   -0.4139    0.0000 C   0  0
    1.4293   -0.8252    0.0000 C   0  0
    1.4281   -1.6502    0.0000 C   0  0
    2.1419   -2.0639    0.0000 N   0  0
    2.8570   -1.6525    0.0000 C   0  0
    3.5703   -2.0678    0.0000 O   0  0
    0.7144   -0.4125    0.0000 C   0  0
    0.7144    0.4125    0.0000 C   0  0
    0.0000    0.8250    0.0000 C   0  0
   -0.7144    0.4125    0.0000 C   0  0
   -1.4986    0.6674    0.0000 O   0  0
   -1.9836    0.0000    0.0000 C   0  0
   -1.4986   -0.6674    0.0000 O   0  0
   -0.7144   -0.4125    0.0000 C   0  0
    0.0000   -0.8250    0.0000 C   0  0
    5.0016    0.4105    0.0000 C   0  0
    5.7167    0.8219    0.0000 C   0  0
    3.5687   -2.6178    0.0000 H   0  0
    3.0968    0.6860    0.0000 H   0  0
  1  2  1  0
  2  3  1  0
  3  4  1  0
  4  5  1  0
  5  6  1  0
  5  8  1  0
  6  7  1  0
  7  2  1  0
  8  9  2  0
  9 10  1  0
 10 11  2  0
 11 12  1  0
 11 31  1  0
 12 13  1  0
 12 34  1  0
 13 14  2  0
 13 15  1  0
 15 16  2  0
 16 17  1  0
 17 18  2  0
 17 22  1  0
 18 19  1  0
 19 20  2  0
 20 15  1  0
 20 21  1  0
 21 33  1  0
 22 23  2  0
 23 24  1  0
 24 25  2  0
 25 26  1  0
 26 27  1  0
 27 28  1  0
 28 29  1  0
 29 25  1  0
 29 30  2  0
 30 22  1  0
 31 32  2  0
 32  8  1  0
M  END
> <CMPD_CHEMBLID>
CHEMBL436509

> <STANDARD_TYPE>
IC50

> <RELATION>
>

> <STANDARD_VALUE>
20000

> <STANDARD_UNITS>
nM

> <Molecular_Weight>
432.47176

$$$$

  SciTegic11272012012D

 32 35  0  0  0  0            999 V2000
   -0.2704   -2.1220    0.0000 C   0  0
    0.1713   -1.6316    0.0000 C   0  0
    0.9918   -1.7178    0.0000 N   0  0
    1.3273   -0.9641    0.0000 N   0  0
    1.9729   -0.8269    0.0000 C   0  0
    0.7144   -0.4125    0.0000 C   0  0
    0.7144    0.4125    0.0000 N   0  0
    0.0000    0.8250    0.0000 N   0  0
   -0.7144    0.4125    0.0000 C   0  0
   -1.4302    0.8237    0.0000 N   0  0
   -2.1444    0.4100    0.0000 C   0  0
   -2.8604    0.8200    0.0000 C   0  0
   -3.5735    0.4050    0.0000 C   0  0
   -3.5706   -0.4200    0.0000 C   0  0
   -2.8547   -0.8300    0.0000 C   0  0
   -2.1416   -0.4150    0.0000 C   0  0
   -4.2840   -0.8352    0.0000 S   0  0
   -4.2815   -1.4952    0.0000 O   0  0
   -4.8543   -1.1674    0.0000 O   0  0
   -5.0005   -0.4254    0.0000 N   0  0
   -5.7140   -0.8406    0.0000 C   0  0
   -6.4305   -0.4308    0.0000 C   0  0
   -7.1439   -0.8460    0.0000 N   0  0
   -7.8607   -0.4375    0.0000 C   0  0
   -8.5729   -0.8539    0.0000 C   0  0
   -8.5684   -1.6789    0.0000 O   0  0
   -7.8517   -2.0874    0.0000 C   0  0
   -7.1395   -1.6710    0.0000 C   0  0
   -0.7144   -0.4125    0.0000 N   0  0
    0.0000   -0.8250    0.0000 C   0  0
   -5.0026    0.1246    0.0000 H   0  0
   -1.4312    1.3737    0.0000 H   0  0
  1  2  1  0
  2  3  2  0
  3  4  1  0
  4  5  1  0
  4  6  1  0
  6  7  2  0
  7  8  1  0
  8  9  2  0
  9 10  1  0
  9 29  1  0
 10 11  1  0
 10 32  1  0
 11 12  2  0
 12 13  1  0
 13 14  2  0
 14 15  1  0
 14 17  1  0
 15 16  2  0
 16 11  1  0
 17 18  2  0
 17 19  2  0
 17 20  1  0
 20 21  1  0
 20 31  1  0
 21 22  1  0
 22 23  1  0
 23 24  1  0
 24 25  1  0
 25 26  1  0
 26 27  1  0
 27 28  1  0
 28 23  1  0
 29 30  2  0
 30  2  1  0
 30  6  1  0
M  END
> <CMPD_CHEMBLID>
CHEMBL3237857

> <STANDARD_TYPE>
IC50

> <RELATION>
=

> <STANDARD_VALUE>
20000

> <STANDARD_UNITS>
nM

> <Molecular_Weight>
432.49996

$$$$

  SciTegic11272012012D

 35 39  0  0  0  0            999 V2000
    9.1427    0.4771    0.0000 C   0  0
    8.5728    0.8099    0.0000 N   0  0
    8.5770    1.6349    0.0000 C   0  0
    7.8646    2.0510    0.0000 C   0  0
    7.1480    1.6421    0.0000 N   0  0
    6.4344    2.0570    0.0000 C   0  0
    5.7181    1.6469    0.0000 C   0  0
    5.0042    2.0605    0.0000 C   0  0
    4.2891    1.6491    0.0000 C   0  0
    4.2878    0.8241    0.0000 C   0  0
    3.5731    0.4110    0.0000 N   0  0
    3.5730   -0.4144    0.0000 C   0  0
    4.1446   -0.7444    0.0000 O   0  0
    2.8583   -0.8275    0.0000 C   0  0
    2.1445   -0.4139    0.0000 C   0  0
    1.4293   -0.8252    0.0000 C   0  0
    1.4281   -1.6502    0.0000 C   0  0
    2.1419   -2.0639    0.0000 N   0  0
    2.8570   -1.6525    0.0000 C   0  0
    3.5703   -2.0678    0.0000 O   0  0
    0.7144   -0.4125    0.0000 C   0  0
    0.7144    0.4125    0.0000 C   0  0
    0.0000    0.8250    0.0000 C   0  0
   -0.7144    0.4125    0.0000 C   0  0
   -1.4986    0.6674    0.0000 O   0  0
   -1.9836    0.0000    0.0000 C   0  0
   -1.4986   -0.6674    0.0000 O   0  0
   -0.7144   -0.4125    0.0000 C   0  0
    0.0000   -0.8250    0.0000 C   0  0
    5.0016    0.4105    0.0000 C   0  0
    5.7167    0.8219    0.0000 C   0  0
    7.1439    0.8171    0.0000 C   0  0
    7.8563    0.4011    0.0000 C   0  0
    3.5687   -2.6178    0.0000 H   0  0
    3.0968    0.6860    0.0000 H   0  0
  1  2  1  0
  2  3  1  0
  3  4  1  0
  4  5  1  0
  5  6  1  0
  5 32  1  0
  6  7  1  0
  7  8  2  0
  8  9  1  0
  9 10  2  0
 10 11  1  0
 10 30  1  0
 11 12  1  0
 11 35  1  0
 12 13  2  0
 12 14  1  0
 14 15  2  0
 15 16  1  0
 16 17  2  0
 16 21  1  0
 17 18  1  0
 18 19  2  0
 19 14  1  0
 19 20  1  0
 20 34  1  0
 21 22  2  0
 22 23  1  0
 23 24  2  0
 24 25  1  0
 25 26  1  0
 26 27  1  0
 27 28  1  0
 28 24  1  0
 28 29  2  0
 29 21  1  0
 30 31  2  0
 31  7  1  0
 32 33  1  0
 33  2  1  0
M  END
> <CMPD_CHEMBLID>
CHEMBL370800

> <STANDARD_TYPE>
IC50

> <RELATION>
>

> <STANDARD_VALUE>
20000

> <STANDARD_UNITS>
nM

> <Molecular_Weight>
446.49834

$$$$

  SciTegic11272012012D

 37 41  0  0  0  0            999 V2000
   10.5727    0.4723    0.0000 C   0  0
   10.0028    0.8052    0.0000 N   0  0
   10.0070    1.6302    0.0000 C   0  0
    9.2946    2.0463    0.0000 C   0  0
    8.5780    1.6374    0.0000 N   0  0
    7.8644    2.0523    0.0000 C   0  0
    7.1480    1.6421    0.0000 C   0  0
    6.4344    2.0570    0.0000 C   0  0
    5.7181    1.6469    0.0000 C   0  0
    5.0042    2.0605    0.0000 C   0  0
    4.2891    1.6491    0.0000 C   0  0
    4.2878    0.8241    0.0000 C   0  0
    3.5731    0.4110    0.0000 N   0  0
    3.5730   -0.4144    0.0000 C   0  0
    4.1446   -0.7444    0.0000 O   0  0
    2.8583   -0.8275    0.0000 C   0  0
    2.1445   -0.4139    0.0000 C   0  0
    1.4293   -0.8252    0.0000 C   0  0
    1.4281   -1.6502    0.0000 C   0  0
    2.1419   -2.0639    0.0000 N   0  0
    2.8570   -1.6525    0.0000 C   0  0
    3.5703   -2.0678    0.0000 O   0  0
    0.7144   -0.4125    0.0000 C   0  0
    0.7144    0.4125    0.0000 C   0  0
    0.0000    0.8250    0.0000 C   0  0
   -0.7144    0.4125    0.0000 C   0  0
   -1.4986    0.6674    0.0000 O   0  0
   -1.9836    0.0000    0.0000 C   0  0
   -1.4986   -0.6674    0.0000 O   0  0
   -0.7144   -0.4125    0.0000 C   0  0
    0.0000   -0.8250    0.0000 C   0  0
    5.0016    0.4105    0.0000 C   0  0
    5.7167    0.8219    0.0000 C   0  0
    8.5739    0.8124    0.0000 C   0  0
    9.2863    0.3963    0.0000 C   0  0
    3.5687   -2.6178    0.0000 H   0  0
    3.0968    0.6860    0.0000 H   0  0
  1  2  1  0
  2  3  1  0
  3  4  1  0
  4  5  1  0
  5  6  1  0
  5 34  1  0
  6  7  1  0
  7  8  1  0
  8  9  1  0
  9 10  2  0
 10 11  1  0
 11 12  2  0
 12 13  1  0
 12 32  1  0
 13 14  1  0
 13 37  1  0
 14 15  2  0
 14 16  1  0
 16 17  2  0
 17 18  1  0
 18 19  2  0
 18 23  1  0
 19 20  1  0
 20 21  2  0
 21 16  1  0
 21 22  1  0
 22 36  1  0
 23 24  2  0
 24 25  1  0
 25 26  2  0
 26 27  1  0
 27 28  1  0
 28 29  1  0
 29 30  1  0
 30 26  1  0
 30 31  2  0
 31 23  1  0
 32 33  2  0
 33  9  1  0
 34 35  1  0
 35  2  1  0
M  END
> <CMPD_CHEMBLID>
CHEMBL381738

> <STANDARD_TYPE>
IC50

> <RELATION>
>

> <STANDARD_VALUE>
20000

> <STANDARD_UNITS>
nM

> <Molecular_Weight>
474.5515

$$$$

  SciTegic11272012012D

 35 38  0  0  0  0            999 V2000
    1.2861   -0.7425    0.0000 C   0  0
    0.7144   -0.4125    0.0000 C   0  0
    0.7144    0.4125    0.0000 C   0  0
    0.0000    0.8250    0.0000 C   0  0
   -0.7144    0.4125    0.0000 C   0  0
   -1.4302    0.8237    0.0000 N   0  0
   -2.1444    0.4100    0.0000 C   0  0
   -2.1433   -0.2500    0.0000 O   0  0
   -2.8602    0.8213    0.0000 C   0  0
   -3.5747    0.4088    0.0000 C   0  0
   -4.2892    0.8213    0.0000 C   0  0
   -4.2892    1.6463    0.0000 C   0  0
   -5.0032    2.0604    0.0000 C   0  0
   -5.0021    2.8859    0.0000 N   0  0
   -3.5747    2.0588    0.0000 C   0  0
   -2.8602    1.6463    0.0000 C   0  0
   -0.7144   -0.4125    0.0000 C   0  0
    0.0000   -0.8250    0.0000 C   0  0
   -0.0017   -1.6504    0.0000 N   0  0
   -0.7171   -2.0622    0.0000 C   0  0
   -0.7201   -2.8872    0.0000 N   0  0
   -1.4359   -3.2972    0.0000 C   0  0
   -2.1490   -2.8822    0.0000 C   0  0
   -2.1461   -2.0572    0.0000 C   0  0
   -1.4302   -1.6472    0.0000 N   0  0
   -2.8595   -1.6421    0.0000 C   0  0
   -3.5761   -2.0509    0.0000 C   0  0
   -4.2885   -1.6348    0.0000 C   0  0
   -4.2843   -0.8099    0.0000 C   0  0
   -3.5678   -0.4009    0.0000 N   0  0
   -2.8554   -0.8170    0.0000 C   0  0
    0.4742   -1.9263    0.0000 H   0  0
   -5.4778    3.1618    0.0000 H   0  0
   -4.5253    3.1601    0.0000 H   0  0
   -1.4312    1.3737    0.0000 H   0  0
  1  2  1  0
  2  3  2  0
  3  4  1  0
  4  5  2  0
  5  6  1  0
  5 17  1  0
  6  7  1  0
  6 35  1  0
  7  8  2  0
  7  9  1  0
  9 10  2  0
 10 11  1  0
 11 12  2  0
 12 13  1  0
 12 15  1  0
 13 14  1  0
 14 33  1  0
 14 34  1  0
 15 16  2  0
 16  9  1  0
 17 18  2  0
 18  2  1  0
 18 19  1  0
 19 20  1  0
 19 32  1  0
 20 21  2  0
 21 22  1  0
 22 23  2  0
 23 24  1  0
 24 25  2  0
 24 26  1  0
 25 20  1  0
 26 27  2  0
 27 28  1  0
 28 29  2  0
 29 30  1  0
 30 31  2  0
 31 26  1  0
M  END
> <CMPD_CHEMBLID>
CHEMBL1765716

> <STANDARD_TYPE>
IC50

> <RELATION>
>

> <STANDARD_VALUE>
20000

> <STANDARD_UNITS>
nM

> <Molecular_Weight>
410.47108

$$$$

  SciTegic11272012012D

 38 41  0  0  0  0            999 V2000
    1.2861   -0.7425    0.0000 C   0  0
    0.7144   -0.4125    0.0000 C   0  0
    0.7144    0.4125    0.0000 C   0  0
    0.0000    0.8250    0.0000 C   0  0
   -0.7144    0.4125    0.0000 C   0  0
   -1.4302    0.8237    0.0000 N   0  0
   -2.1444    0.4100    0.0000 C   0  0
   -2.1433   -0.2500    0.0000 O   0  0
   -2.8602    0.8213    0.0000 C   0  0
   -3.5747    0.4088    0.0000 C   0  0
   -4.2892    0.8213    0.0000 C   0  0
   -4.2892    1.6463    0.0000 C   0  0
   -5.0032    2.0604    0.0000 C   0  0
   -5.0021    2.8859    0.0000 N   0  0
   -5.7161    3.3000    0.0000 C   0  0
   -6.2882    2.9710    0.0000 O   0  0
   -5.7149    4.1255    0.0000 C   0  0
   -6.2858    4.4566    0.0000 Cl  0  0
   -3.5747    2.0588    0.0000 C   0  0
   -2.8602    1.6463    0.0000 C   0  0
   -0.7144   -0.4125    0.0000 C   0  0
    0.0000   -0.8250    0.0000 C   0  0
   -0.0017   -1.6504    0.0000 N   0  0
   -0.7171   -2.0622    0.0000 C   0  0
   -0.7201   -2.8872    0.0000 N   0  0
   -1.4359   -3.2972    0.0000 C   0  0
   -2.1490   -2.8822    0.0000 C   0  0
   -2.1461   -2.0572    0.0000 C   0  0
   -1.4302   -1.6472    0.0000 N   0  0
   -2.8595   -1.6421    0.0000 C   0  0
   -3.5761   -2.0509    0.0000 C   0  0
   -4.2885   -1.6348    0.0000 C   0  0
   -4.2843   -0.8099    0.0000 C   0  0
   -3.5678   -0.4009    0.0000 N   0  0
   -2.8554   -0.8170    0.0000 C   0  0
    0.4742   -1.9263    0.0000 H   0  0
   -4.5253    3.1601    0.0000 H   0  0
   -1.4312    1.3737    0.0000 H   0  0
  1  2  1  0
  2  3  2  0
  3  4  1  0
  4  5  2  0
  5  6  1  0
  5 21  1  0
  6  7  1  0
  6 38  1  0
  7  8  2  0
  7  9  1  0
  9 10  2  0
 10 11  1  0
 11 12  2  0
 12 13  1  0
 12 19  1  0
 13 14  1  0
 14 15  1  0
 14 37  1  0
 15 16  2  0
 15 17  1  0
 17 18  1  0
 19 20  2  0
 20  9  1  0
 21 22  2  0
 22  2  1  0
 22 23  1  0
 23 24  1  0
 23 36  1  0
 24 25  2  0
 25 26  1  0
 26 27  2  0
 27 28  1  0
 28 29  2  0
 28 30  1  0
 29 24  1  0
 30 31  2  0
 31 32  1  0
 32 33  2  0
 33 34  1  0
 34 35  2  0
 35 30  1  0
M  END
> <CMPD_CHEMBLID>
CHEMBL1765717

> <STANDARD_TYPE>
IC50

> <RELATION>
>

> <STANDARD_VALUE>
20000

> <STANDARD_UNITS>
nM

> <Molecular_Weight>
486.95282

$$$$

  SciTegic11272012012D

 39 42  0  0  0  0            999 V2000
    2.8532   -3.9660    0.0000 C   0  0
    2.8542   -3.3060    0.0000 C   0  0
    2.1401   -2.8918    0.0000 C   0  0
    2.1413   -2.0663    0.0000 C   0  0
    2.7135   -1.7373    0.0000 O   0  0
    1.4273   -1.6521    0.0000 N   0  0
    1.4285   -0.8267    0.0000 C   0  0
    0.7144   -0.4125    0.0000 C   0  0
    0.7144    0.4125    0.0000 C   0  0
    0.0000    0.8250    0.0000 C   0  0
   -0.7144    0.4125    0.0000 C   0  0
   -0.7144   -0.4125    0.0000 C   0  0
    0.0000   -0.8250    0.0000 C   0  0
   -1.4302    0.8237    0.0000 C   0  0
   -1.4313    1.4837    0.0000 O   0  0
   -2.1444    0.4100    0.0000 N   0  0
   -2.8601    0.8213    0.0000 C   0  0
   -3.5746    0.4088    0.0000 C   0  0
   -4.2892    0.8213    0.0000 C   0  0
   -4.2892    1.6463    0.0000 C   0  0
   -4.8608    1.9762    0.0000 C   0  0
   -3.5747    2.0587    0.0000 C   0  0
   -3.5731    2.8842    0.0000 N   0  0
   -2.8576    3.2960    0.0000 C   0  0
   -2.8547    4.1210    0.0000 N   0  0
   -2.1388    4.5310    0.0000 C   0  0
   -1.4258    4.1161    0.0000 C   0  0
   -1.4286    3.2911    0.0000 C   0  0
   -2.1445    2.8810    0.0000 N   0  0
   -0.7152    2.8759    0.0000 C   0  0
    0.0014    3.2848    0.0000 C   0  0
    0.7138    2.8687    0.0000 C   0  0
    0.7096    2.0437    0.0000 C   0  0
   -0.0069    1.6348    0.0000 N   0  0
   -0.7193    2.0509    0.0000 C   0  0
   -2.8602    1.6463    0.0000 C   0  0
   -4.0489    3.1600    0.0000 H   0  0
   -2.1435   -0.1400    0.0000 H   0  0
    0.9505   -1.9263    0.0000 H   0  0
  1  2  1  0
  2  3  2  0
  3  4  1  0
  4  5  2  0
  4  6  1  0
  6  7  1  0
  6 39  1  0
  7  8  1  0
  8  9  2  0
  9 10  1  0
 10 11  2  0
 11 12  1  0
 11 14  1  0
 12 13  2  0
 13  8  1  0
 14 15  2  0
 14 16  1  0
 16 17  1  0
 16 38  1  0
 17 18  2  0
 18 19  1  0
 19 20  2  0
 20 21  1  0
 20 22  1  0
 22 23  1  0
 22 36  2  0
 23 24  1  0
 23 37  1  0
 24 25  2  0
 25 26  1  0
 26 27  2  0
 27 28  1  0
 28 29  2  0
 28 30  1  0
 29 24  1  0
 30 31  2  0
 31 32  1  0
 32 33  2  0
 33 34  1  0
 34 35  2  0
 35 30  1  0
 36 17  1  0
M  END
> <CMPD_CHEMBLID>
CHEMBL1765718

> <STANDARD_TYPE>
IC50

> <RELATION>
>

> <STANDARD_VALUE>
20000

> <STANDARD_UNITS>
nM

> <Molecular_Weight>
478.54504

$$$$

  SciTegic11272012012D

 28 31  0  0  0  0            999 V2000
    1.2861   -0.7425    0.0000 I   0  0
    0.7145   -0.4125    0.0000 C   0  0
    0.7145    0.4125    0.0000 C   0  0
    0.0000    0.8250    0.0000 C   0  0
   -0.7145    0.4125    0.0000 C   0  0
   -0.7145   -0.4125    0.0000 C   0  0
    0.0000   -0.8250    0.0000 C   0  0
   -1.4293    0.8252    0.0000 N   0  0
   -1.5065    1.6396    0.0000 N   0  0
   -2.3137    1.8098    0.0000 C   0  0
   -2.5831    2.4123    0.0000 O   0  0
   -2.7251    1.0947    0.0000 C   0  0
   -3.5443    1.0055    0.0000 C   0  0
   -3.8778    0.2504    0.0000 C   0  0
   -4.6978    0.1600    0.0000 C   0  0
   -5.0295   -0.5954    0.0000 C   0  0
   -4.5413   -1.2604    0.0000 C   0  0
   -3.7212   -1.1700    0.0000 C   0  0
   -3.3895   -0.4146    0.0000 C   0  0
   -4.8731   -2.0161    0.0000 N   0  0
   -5.6931   -2.1079    0.0000 C   0  0
   -6.0236   -2.8638    0.0000 C   0  0
   -5.5342   -3.5280    0.0000 O   0  0
   -4.7143   -3.4363    0.0000 C   0  0
   -4.3838   -2.6804    0.0000 C   0  0
   -2.1721    0.4825    0.0000 C   0  0
   -2.3044   -0.1641    0.0000 O   0  0
   -1.0961    2.0058    0.0000 H   0  0
  1  2  1  0
  2  3  2  0
  3  4  1  0
  4  5  2  0
  5  6  1  0
  5  8  1  0
  6  7  2  0
  7  2  1  0
  8  9  1  0
  9 10  1  0
  9 28  1  0
 10 11  2  0
 10 12  1  0
 12 13  2  0
 12 26  1  0
 13 14  1  0
 14 15  2  0
 15 16  1  0
 16 17  2  0
 17 18  1  0
 17 20  1  0
 18 19  2  0
 19 14  1  0
 20 21  1  0
 21 22  1  0
 22 23  1  0
 23 24  1  0
 24 25  1  0
 25 20  1  0
 26  8  1  0
 26 27  2  0
M  END
> <CMPD_CHEMBLID>
CHEMBL378175

> <STANDARD_TYPE>
Ki

> <RELATION>
=

> <STANDARD_VALUE>
20000

> <STANDARD_UNITS>
nM

> <Molecular_Weight>
475.27969

$$$$

  SciTegic11272012012D

 36 40  0  0  0  0            999 V2000
    9.8668    3.2041    0.0000 C   0  0
    9.2947    2.8751    0.0000 N   0  0
    9.2933    2.0500    0.0000 C   0  0
    8.5782    1.6387    0.0000 C   0  0
    7.8644    2.0523    0.0000 N   0  0
    7.1480    1.6421    0.0000 C   0  0
    6.4344    2.0570    0.0000 C   0  0
    5.7181    1.6469    0.0000 C   0  0
    5.0042    2.0605    0.0000 C   0  0
    4.2891    1.6491    0.0000 C   0  0
    4.2878    0.8241    0.0000 C   0  0
    3.5731    0.4110    0.0000 N   0  0
    3.5730   -0.4144    0.0000 C   0  0
    4.1446   -0.7444    0.0000 O   0  0
    2.8583   -0.8275    0.0000 C   0  0
    2.1445   -0.4139    0.0000 C   0  0
    1.4293   -0.8252    0.0000 C   0  0
    1.4281   -1.6502    0.0000 C   0  0
    2.1419   -2.0639    0.0000 N   0  0
    2.8570   -1.6525    0.0000 C   0  0
    3.5703   -2.0678    0.0000 O   0  0
    0.7144   -0.4125    0.0000 C   0  0
    0.7144    0.4125    0.0000 C   0  0
    0.0000    0.8250    0.0000 C   0  0
   -0.7144    0.4125    0.0000 C   0  0
   -1.4986    0.6674    0.0000 O   0  0
   -1.9836    0.0000    0.0000 C   0  0
   -1.4986   -0.6674    0.0000 O   0  0
   -0.7144   -0.4125    0.0000 C   0  0
    0.0000   -0.8250    0.0000 C   0  0
    5.0016    0.4105    0.0000 C   0  0
    5.7167    0.8219    0.0000 C   0  0
    7.8658    2.8773    0.0000 C   0  0
    8.5809    3.2887    0.0000 C   0  0
    3.5687   -2.6178    0.0000 H   0  0
    3.0968    0.6860    0.0000 H   0  0
  1  2  1  0
  2  3  1  0
  3  4  1  0
  4  5  1  0
  5  6  1  0
  5 33  1  0
  6  7  1  0
  7  8  1  0
  8  9  2  0
  9 10  1  0
 10 11  2  0
 11 12  1  0
 11 31  1  0
 12 13  1  0
 12 36  1  0
 13 14  2  0
 13 15  1  0
 15 16  2  0
 16 17  1  0
 17 18  2  0
 17 22  1  0
 18 19  1  0
 19 20  2  0
 20 15  1  0
 20 21  1  0
 21 35  1  0
 22 23  2  0
 23 24  1  0
 24 25  2  0
 25 26  1  0
 26 27  1  0
 27 28  1  0
 28 29  1  0
 29 25  1  0
 29 30  2  0
 30 22  1  0
 31 32  2  0
 32  8  1  0
 33 34  1  0
 34  2  1  0
M  END
> <CMPD_CHEMBLID>
CHEMBL199723

> <STANDARD_TYPE>
IC50

> <RELATION>
>

> <STANDARD_VALUE>
20000

> <STANDARD_UNITS>
nM

> <Molecular_Weight>
460.52492

$$$$

  SciTegic11272012012D

 39 42  0  0  0  0            999 V2000
    1.5680   -3.2208    0.0000 C   0  0
    2.1402   -2.8918    0.0000 C   0  0
    2.7111   -3.2230    0.0000 C   0  0
    2.1413   -2.0663    0.0000 C   0  0
    2.7135   -1.7373    0.0000 O   0  0
    1.4273   -1.6521    0.0000 N   0  0
    1.4285   -0.8267    0.0000 C   0  0
    0.7144   -0.4125    0.0000 C   0  0
    0.7144    0.4125    0.0000 C   0  0
    0.0000    0.8250    0.0000 C   0  0
   -0.7144    0.4125    0.0000 C   0  0
   -0.7144   -0.4125    0.0000 C   0  0
    0.0000   -0.8250    0.0000 C   0  0
   -1.4302    0.8237    0.0000 C   0  0
   -1.4313    1.4837    0.0000 O   0  0
   -2.1444    0.4100    0.0000 N   0  0
   -2.8602    0.8213    0.0000 C   0  0
   -3.5747    0.4088    0.0000 C   0  0
   -4.2892    0.8213    0.0000 C   0  0
   -4.2892    1.6463    0.0000 C   0  0
   -4.8608    1.9763    0.0000 C   0  0
   -3.5747    2.0588    0.0000 C   0  0
   -3.5731    2.8842    0.0000 N   0  0
   -2.8576    3.2960    0.0000 C   0  0
   -2.8547    4.1210    0.0000 N   0  0
   -2.1388    4.5310    0.0000 C   0  0
   -1.4258    4.1161    0.0000 C   0  0
   -1.4286    3.2911    0.0000 C   0  0
   -2.1445    2.8810    0.0000 N   0  0
   -0.7152    2.8759    0.0000 C   0  0
    0.0014    3.2848    0.0000 C   0  0
    0.7138    2.8687    0.0000 C   0  0
    0.7096    2.0437    0.0000 C   0  0
   -0.0069    1.6348    0.0000 N   0  0
   -0.7193    2.0509    0.0000 C   0  0
   -2.8602    1.6463    0.0000 C   0  0
   -4.0489    3.1600    0.0000 H   0  0
   -2.1435   -0.1400    0.0000 H   0  0
    0.9505   -1.9263    0.0000 H   0  0
  1  2  1  0
  2  3  2  0
  2  4  1  0
  4  5  2  0
  4  6  1  0
  6  7  1  0
  6 39  1  0
  7  8  1  0
  8  9  2  0
  9 10  1  0
 10 11  2  0
 11 12  1  0
 11 14  1  0
 12 13  2  0
 13  8  1  0
 14 15  2  0
 14 16  1  0
 16 17  1  0
 16 38  1  0
 17 18  2  0
 18 19  1  0
 19 20  2  0
 20 21  1  0
 20 22  1  0
 22 23  1  0
 22 36  2  0
 23 24  1  0
 23 37  1  0
 24 25  2  0
 25 26  1  0
 26 27  2  0
 27 28  1  0
 28 29  2  0
 28 30  1  0
 29 24  1  0
 30 31  2  0
 31 32  1  0
 32 33  2  0
 33 34  1  0
 34 35  2  0
 35 30  1  0
 36 17  1  0
M  END
> <CMPD_CHEMBLID>
CHEMBL1765719

> <STANDARD_TYPE>
IC50

> <RELATION>
>

> <STANDARD_VALUE>
20000

> <STANDARD_UNITS>
nM

> <Molecular_Weight>
478.54504

$$$$

  SciTegic11272012012D

 26 28  0  0  0  0            999 V2000
    2.7111   -3.2230    0.0000 C   0  0
    2.1402   -2.8918    0.0000 C   0  0
    2.1413   -2.0663    0.0000 N   0  0
    1.4273   -1.6521    0.0000 C   0  0
    0.8551   -1.9812    0.0000 O   0  0
    1.4285   -0.8267    0.0000 N   0  0
    0.7144   -0.4125    0.0000 C   0  0
    0.7144    0.4125    0.0000 C   0  0
    0.0000    0.8250    0.0000 C   0  0
   -0.7144    0.4125    0.0000 C   0  0
   -1.4290    0.8250    0.0000 N   0  0
   -2.1434    0.4125    0.0000 C   0  0
   -2.1434   -0.4125    0.0000 C   0  0
   -1.4290   -0.8250    0.0000 C   0  0
   -0.7144   -0.4125    0.0000 C   0  0
    0.0000   -0.8250    0.0000 N   0  0
   -2.8582   -0.8252    0.0000 C   0  0
   -3.5734   -0.4139    0.0000 C   0  0
   -4.2872   -0.8275    0.0000 C   0  0
   -4.2859   -1.6525    0.0000 C   0  0
   -4.9993   -2.0679    0.0000 O   0  0
   -4.9973   -2.7278    0.0000 C   0  0
   -3.5708   -2.0639    0.0000 C   0  0
   -2.8570   -1.6503    0.0000 C   0  0
    1.9053   -0.5525    0.0000 H   0  0
    2.6181   -1.7922    0.0000 H   0  0
  1  2  1  0
  2  3  1  0
  3  4  1  0
  3 26  1  0
  4  5  2  0
  4  6  1  0
  6  7  1  0
  6 25  1  0
  7  8  2  0
  8  9  1  0
  9 10  2  0
 10 11  1  0
 11 12  2  0
 12 13  1  0
 13 14  2  0
 13 17  1  0
 14 15  1  0
 15 10  1  0
 15 16  2  0
 16  7  1  0
 17 18  2  0
 18 19  1  0
 19 20  2  0
 20 21  1  0
 20 23  1  0
 21 22  1  0
 23 24  2  0
 24 17  1  0
M  END
> <CMPD_CHEMBLID>
CHEMBL3318023

> <STANDARD_TYPE>
IC50

> <RELATION>
=

> <STANDARD_VALUE>
20840

> <STANDARD_UNITS>
nM

> <Molecular_Weight>
322.36112

$$$$

  SciTegic11272012012D

 35 38  0  0  0  0            999 V2000
    2.0013   -0.4930    0.0000 C   0  0
    1.4302   -0.8237    0.0000 O   0  0
    0.7145   -0.4125    0.0000 C   0  0
    0.7145    0.4125    0.0000 C   0  0
    0.0000    0.8250    0.0000 C   0  0
   -0.7145    0.4125    0.0000 C   0  0
   -0.7145   -0.4125    0.0000 C   0  0
    0.0000   -0.8250    0.0000 C   0  0
   -0.0017   -1.6505    0.0000 C   0  0
   -0.7172   -2.0622    0.0000 N   0  0
   -0.7189   -2.8877    0.0000 C   0  0
   -1.4333   -3.3002    0.0000 N   0  0
   -1.4333   -4.1252    0.0000 C   0  0
   -0.7189   -4.5377    0.0000 C   0  0
   -0.7206   -5.3632    0.0000 C   0  0
   -0.1496   -5.6942    0.0000 O   0  0
   -1.4361   -5.7749    0.0000 N   0  0
   -1.4378   -6.6004    0.0000 C   0  0
   -2.1522   -7.0129    0.0000 C   0  0
   -2.1523   -7.8379    0.0000 C   0  0
   -1.4378   -8.2505    0.0000 N   0  0
   -1.4379   -8.9105    0.0000 C   0  0
   -0.7233   -7.8380    0.0000 C   0  0
   -0.7233   -7.0130    0.0000 C   0  0
   -0.0044   -4.1252    0.0000 C   0  0
    0.7113   -4.5365    0.0000 N   0  0
    1.4256   -4.1228    0.0000 C   0  0
    2.1701   -4.4618    0.0000 C   0  0
    2.7200   -3.8468    0.0000 C   0  0
    2.3050   -3.1337    0.0000 C   0  0
    1.4987   -3.3080    0.0000 C   0  0
   -0.0043   -3.3002    0.0000 N   0  0
    0.7123   -5.0865    0.0000 H   0  0
   -1.9119   -5.4991    0.0000 H   0  0
   -1.1930   -1.7864    0.0000 H   0  0
  1  2  1  0
  2  3  1  0
  3  4  2  0
  4  5  1  0
  5  6  2  0
  6  7  1  0
  7  8  2  0
  8  3  1  0
  8  9  1  0
  9 10  1  0
 10 11  1  0
 10 35  1  0
 11 12  2  0
 12 13  1  0
 13 14  2  0
 14 15  1  0
 14 25  1  0
 15 16  2  0
 15 17  1  0
 17 18  1  0
 17 34  1  0
 18 19  1  0
 19 20  1  0
 20 21  1  0
 21 22  1  0
 21 23  1  0
 23 24  1  0
 24 18  1  0
 25 26  1  0
 25 32  2  0
 26 27  1  0
 26 33  1  0
 27 28  1  0
 28 29  1  0
 29 30  1  0
 30 31  1  0
 31 27  1  0
 32 11  1  0
M  END
> <CMPD_CHEMBLID>
CHEMBL2312645

> <STANDARD_TYPE>
IC50

> <RELATION>
=

> <STANDARD_VALUE>
21110

> <STANDARD_UNITS>
nM

> <Molecular_Weight>
438.56576

$$$$

  SciTegic11272012012D

 65 65  0  0  0  0            999 V2000
    6.9918   -6.6985    0.0000 C   0  0
    6.4193   -7.0262    0.0000 C   0  0
    5.7061   -6.6114    0.0000 C   0  0
    5.7084   -5.9517    0.0000 C   0  0
    4.9900   -7.0212    0.0000 C   0  0
    4.2764   -6.6072    0.0000 N   0  0
    4.2775   -5.7822    0.0000 C   0  0
    4.8494   -5.4534    0.0000 O   0  0
    3.5639   -5.3682    0.0000 C   0  0
    2.8479   -5.7780    0.0000 C   0  0
    2.1347   -5.3633    0.0000 C   0  0
    1.4187   -5.7731    0.0000 C   0  0
    1.4164   -6.4327    0.0000 O   0  0
    0.7055   -5.3583    0.0000 O   0  0
    3.5651   -4.5432    0.0000 N   0  0
    2.8515   -4.1292    0.0000 C   0  0
    2.2796   -4.4581    0.0000 O   0  0
    2.8526   -3.3042    0.0000 C   0  0
    3.5670   -2.8915    0.0000 C   0  0
    3.5673   -2.0665    0.0000 C   0  0
    4.2816   -1.6537    0.0000 C   0  0
    4.8529   -1.9836    0.0000 O   0  0
    4.2819   -0.8287    0.0000 O   0  0
    2.1390   -2.8902    0.0000 N   0  0
    2.1402   -2.0652    0.0000 C   0  0
    2.7120   -1.7364    0.0000 O   0  0
    1.4265   -1.6513    0.0000 C   0  0
    1.4278   -0.8263    0.0000 C   0  0
    0.7141   -0.4123    0.0000 C   0  0
    0.7141    0.4123    0.0000 C   0  0
    0.0000    0.8246    0.0000 C   0  0
   -0.7141    0.4123    0.0000 C   0  0
   -0.7141   -0.4123    0.0000 C   0  0
    0.0000   -0.8246    0.0000 C   0  0
   -1.4286    0.8248    0.0000 P   0  0
   -1.9997    0.4948    0.0000 O   0  0
   -1.4291    1.6498    0.0000 O   0  0
   -1.4295   -0.0163    0.0000 O   0  0
    0.7105   -2.0611    0.0000 N   0  0
    0.7069   -2.8861    0.0000 C   0  0
    0.1343   -3.2137    0.0000 O   0  0
    1.2767   -3.2183    0.0000 C   0  0
    4.9889   -7.8462    0.0000 C   0  0
    4.4170   -8.1750    0.0000 O   0  0
    5.7025   -8.2602    0.0000 N   0  0
    5.7013   -9.0852    0.0000 C   0  0
    6.4150   -9.4992    0.0000 C   0  0
    6.4138  -10.3242    0.0000 C   0  0
    7.1274  -10.7381    0.0000 C   0  0
    7.6992  -10.4093    0.0000 O   0  0
    7.1262  -11.5632    0.0000 O   0  0
    4.9869   -9.4979    0.0000 C   0  0
    4.4157   -9.1681    0.0000 O   0  0
    4.9867  -10.3229    0.0000 O   0  0
    4.5107  -10.5980    0.0000 H   0  0
    7.6017  -11.8390    0.0000 H   0  0
    6.1790   -7.9861    0.0000 H   0  0
    0.2356   -1.7842    0.0000 H   0  0
   -1.9057   -0.2908    0.0000 H   0  0
   -1.9052    1.9246    0.0000 H   0  0
    1.6625   -3.1643    0.0000 H   0  0
    4.7578   -0.5537    0.0000 H   0  0
    4.0417   -4.2692    0.0000 H   0  0
    0.2284   -5.6313    0.0000 H   0  0
    3.7998   -6.8812    0.0000 H   0  0
  1  2  1  0
  2  3  1  0
  3  4  1  0
  3  5  1  0
  5  6  1  0
  5 43  1  0
  6  7  1  0
  6 65  1  0
  7  8  2  0
  7  9  1  0
  9 10  1  0
  9 15  1  0
 10 11  1  0
 11 12  1  0
 12 13  2  0
 12 14  1  0
 14 64  1  0
 15 16  1  0
 15 63  1  0
 16 17  2  0
 16 18  1  0
 18 19  1  0
 18 24  1  0
 19 20  1  0
 20 21  1  0
 21 22  2  0
 21 23  1  0
 23 62  1  0
 24 25  1  0
 24 61  1  0
 25 26  2  0
 25 27  1  0
 27 28  1  0
 27 39  1  0
 28 29  1  0
 29 30  2  0
 30 31  1  0
 31 32  2  0
 32 33  1  0
 32 35  1  0
 33 34  2  0
 34 29  1  0
 35 36  2  0
 35 37  1  0
 35 38  1  0
 37 60  1  0
 38 59  1  0
 39 40  1  0
 39 58  1  0
 40 41  2  0
 40 42  1  0
 43 44  2  0
 43 45  1  0
 45 46  1  0
 45 57  1  0
 46 47  1  0
 46 52  1  0
 47 48  1  0
 48 49  1  0
 49 50  2  0
 49 51  1  0
 51 56  1  0
 52 53  2  0
 52 54  1  0
 54 55  1  0
M  END
> <CMPD_CHEMBLID>
CHEMBL56697

> <STANDARD_TYPE>
IC50

> <RELATION>
=

> <STANDARD_VALUE>
22000

> <STANDARD_UNITS>
nM

> <Molecular_Weight>
787.7053

$$$$

  SciTegic11272012012D

 36 40  0  0  0  0            999 V2000
    0.2263   -4.5663    0.0000 C   0  0
   -0.4193   -4.4289    0.0000 C   0  0
   -0.9714   -5.0420    0.0000 C   0  0
   -1.7784   -4.8703    0.0000 C   0  0
   -2.0332   -4.0856    0.0000 C   0  0
   -1.4811   -3.4726    0.0000 C   0  0
   -0.6741   -3.6442    0.0000 C   0  0
   -0.1229   -3.0298    0.0000 C   0  0
   -0.3790   -2.2450    0.0000 C   0  0
    0.1713   -1.6316    0.0000 N   0  0
    0.9918   -1.7178    0.0000 C   0  0
    1.3273   -0.9642    0.0000 N   0  0
    0.7145   -0.4125    0.0000 C   0  0
    0.7145    0.4125    0.0000 C   0  0
    1.4285    0.8267    0.0000 N   0  0
    1.4273    1.6522    0.0000 C   0  0
    1.8375    2.3178    0.0000 C   0  0
    1.0125    2.3149    0.0000 C   0  0
    0.0000    0.8250    0.0000 N   0  0
   -0.7145    0.4125    0.0000 C   0  0
   -0.7145   -0.4125    0.0000 N   0  0
    0.0000   -0.8250    0.0000 C   0  0
   -2.8402   -3.9122    0.0000 C   0  0
   -3.2828   -4.4019    0.0000 O   0  0
   -3.0941   -3.1267    0.0000 N   0  0
   -3.9011   -2.9533    0.0000 C   0  0
   -4.2248   -2.2021    0.0000 C   0  0
   -5.0453   -2.2882    0.0000 C   0  0
   -5.2170   -3.0952    0.0000 O   0  0
   -4.5026   -3.5078    0.0000 N   0  0
   -5.5966   -1.6757    0.0000 C   0  0
   -5.3930   -1.0479    0.0000 C   0  0
   -6.2422   -1.8130    0.0000 C   0  0
   -6.0384   -1.1854    0.0000 C   0  0
   -2.7253   -2.7187    0.0000 H   0  0
    1.9053    0.5525    0.0000 H   0  0
  1  2  1  0
  2  3  2  0
  3  4  1  0
  4  5  2  0
  5  6  1  0
  5 23  1  0
  6  7  2  0
  7  2  1  0
  7  8  1  0
  8  9  2  0
  9 10  1  0
 10 11  1  0
 11 12  2  0
 12 13  1  0
 13 14  2  0
 14 15  1  0
 14 19  1  0
 15 16  1  0
 15 36  1  0
 16 17  1  0
 17 18  1  0
 18 16  1  0
 19 20  2  0
 20 21  1  0
 21 22  2  0
 22 10  1  0
 22 13  1  0
 23 24  2  0
 23 25  1  0
 25 26  1  0
 25 35  1  0
 26 27  1  0
 27 28  2  0
 28 29  1  0
 28 31  1  0
 29 30  1  0
 30 26  2  0
 31 32  1  0
 31 33  1  0
 31 34  1  0
M  END
> <CMPD_CHEMBLID>
CHEMBL556669

> <STANDARD_TYPE>
IC50

> <RELATION>
=

> <STANDARD_VALUE>
23000

> <STANDARD_UNITS>
nM

> <Molecular_Weight>
457.52758

$$$$

  SciTegic11272012012D

 37 41  0  0  0  0            999 V2000
    0.2263   -4.5662    0.0000 C   0  0
   -0.4193   -4.4289    0.0000 C   0  0
   -0.9714   -5.0419    0.0000 C   0  0
   -1.7784   -4.8702    0.0000 C   0  0
   -2.0332   -4.0856    0.0000 C   0  0
   -1.4810   -3.4726    0.0000 C   0  0
   -0.6741   -3.6442    0.0000 C   0  0
   -0.1229   -3.0297    0.0000 C   0  0
   -0.3789   -2.2450    0.0000 C   0  0
    0.1713   -1.6316    0.0000 N   0  0
    0.9918   -1.7178    0.0000 C   0  0
    1.3273   -0.9641    0.0000 N   0  0
    0.7144   -0.4125    0.0000 C   0  0
    0.7144    0.4125    0.0000 C   0  0
    1.4285    0.8267    0.0000 N   0  0
    1.4273    1.6521    0.0000 C   0  0
    1.8374    2.3178    0.0000 C   0  0
    1.0124    2.3149    0.0000 C   0  0
    0.0000    0.8250    0.0000 N   0  0
   -0.7144    0.4125    0.0000 C   0  0
   -0.7144   -0.4125    0.0000 N   0  0
    0.0000   -0.8250    0.0000 C   0  0
   -2.8402   -3.9122    0.0000 C   0  0
   -3.2828   -4.4018    0.0000 O   0  0
   -3.0941   -3.1267    0.0000 N   0  0
   -3.9011   -2.9533    0.0000 C   0  0
   -4.1560   -2.1686    0.0000 C   0  0
   -4.9629   -1.9969    0.0000 C   0  0
   -5.5150   -2.6100    0.0000 C   0  0
   -5.2603   -3.3946    0.0000 C   0  0
   -4.4533   -3.5663    0.0000 C   0  0
   -5.8127   -4.0080    0.0000 C   0  0
   -6.4583   -3.8710    0.0000 F   0  0
   -5.6086   -4.6356    0.0000 F   0  0
   -6.2542   -4.4986    0.0000 F   0  0
   -2.7252   -2.7186    0.0000 H   0  0
    1.9053    0.5525    0.0000 H   0  0
  1  2  1  0
  2  3  2  0
  3  4  1  0
  4  5  2  0
  5  6  1  0
  5 23  1  0
  6  7  2  0
  7  2  1  0
  7  8  1  0
  8  9  2  0
  9 10  1  0
 10 11  1  0
 11 12  2  0
 12 13  1  0
 13 14  2  0
 14 15  1  0
 14 19  1  0
 15 16  1  0
 15 37  1  0
 16 17  1  0
 17 18  1  0
 18 16  1  0
 19 20  2  0
 20 21  1  0
 21 22  2  0
 22 10  1  0
 22 13  1  0
 23 24  2  0
 23 25  1  0
 25 26  1  0
 25 36  1  0
 26 27  2  0
 27 28  1  0
 28 29  2  0
 29 30  1  0
 30 31  2  0
 30 32  1  0
 31 26  1  0
 32 33  1  0
 32 34  1  0
 32 35  1  0
M  END
> <CMPD_CHEMBLID>
CHEMBL564726

> <STANDARD_TYPE>
IC50

> <RELATION>
=

> <STANDARD_VALUE>
23000

> <STANDARD_UNITS>
nM

> <Molecular_Weight>
478.46905

$$$$

  SciTegic11272012012D

 44 49  0  0  0  0            999 V2000
   -5.9348    0.9841    0.0000 C   0  0
   -5.7299    0.3567    0.0000 N   0  0
   -4.9227    0.1863    0.0000 C   0  0
   -4.6666   -0.5980    0.0000 C   0  0
   -5.2178   -1.2119    0.0000 N   0  0
   -6.0250   -1.0414    0.0000 C   0  0
   -6.2811   -0.2572    0.0000 C   0  0
   -4.9629   -1.9969    0.0000 C   0  0
   -4.1560   -2.1686    0.0000 C   0  0
   -3.9011   -2.9533    0.0000 C   0  0
   -3.0941   -3.1267    0.0000 N   0  0
   -2.8402   -3.9122    0.0000 C   0  0
   -3.2828   -4.4018    0.0000 O   0  0
   -2.0332   -4.0856    0.0000 C   0  0
   -1.7784   -4.8702    0.0000 C   0  0
   -0.9714   -5.0419    0.0000 C   0  0
   -0.4193   -4.4289    0.0000 C   0  0
    0.2263   -4.5662    0.0000 C   0  0
   -0.6741   -3.6442    0.0000 C   0  0
   -0.1229   -3.0297    0.0000 C   0  0
   -0.3789   -2.2450    0.0000 C   0  0
    0.1713   -1.6316    0.0000 N   0  0
    0.9918   -1.7178    0.0000 C   0  0
    1.3273   -0.9641    0.0000 N   0  0
    0.7144   -0.4125    0.0000 C   0  0
    0.7144    0.4125    0.0000 C   0  0
    1.4285    0.8267    0.0000 N   0  0
    1.4273    1.6521    0.0000 C   0  0
    1.8374    2.3178    0.0000 C   0  0
    1.0124    2.3149    0.0000 C   0  0
    0.0000    0.8250    0.0000 N   0  0
   -0.7144    0.4125    0.0000 C   0  0
   -0.7144   -0.4125    0.0000 N   0  0
    0.0000   -0.8250    0.0000 C   0  0
   -1.4810   -3.4726    0.0000 C   0  0
   -4.4533   -3.5663    0.0000 C   0  0
   -5.2603   -3.3946    0.0000 C   0  0
   -5.5150   -2.6100    0.0000 C   0  0
   -5.8127   -4.0080    0.0000 C   0  0
   -5.6092   -4.6358    0.0000 F   0  0
   -6.4582   -3.8704    0.0000 F   0  0
   -6.2547   -4.4981    0.0000 F   0  0
    1.9053    0.5525    0.0000 H   0  0
   -2.7252   -2.7186    0.0000 H   0  0
  1  2  1  0
  2  3  1  0
  3  4  1  0
  4  5  1  0
  5  6  1  0
  5  8  1  0
  6  7  1  0
  7  2  1  0
  8  9  2  0
  9 10  1  0
 10 11  1  0
 10 36  2  0
 11 12  1  0
 11 44  1  0
 12 13  2  0
 12 14  1  0
 14 15  2  0
 15 16  1  0
 16 17  2  0
 17 18  1  0
 17 19  1  0
 19 20  1  0
 19 35  2  0
 20 21  2  0
 21 22  1  0
 22 23  1  0
 23 24  2  0
 24 25  1  0
 25 26  2  0
 26 27  1  0
 26 31  1  0
 27 28  1  0
 27 43  1  0
 28 29  1  0
 29 30  1  0
 30 28  1  0
 31 32  2  0
 32 33  1  0
 33 34  2  0
 34 22  1  0
 34 25  1  0
 35 14  1  0
 36 37  1  0
 37 38  2  0
 37 39  1  0
 38  8  1  0
 39 40  1  0
 39 41  1  0
 39 42  1  0
M  END
> <CMPD_CHEMBLID>
CHEMBL556746

> <STANDARD_TYPE>
IC50

> <RELATION>
=

> <STANDARD_VALUE>
24000

> <STANDARD_UNITS>
nM

> <Molecular_Weight>
576.61535

$$$$

  SciTegic11272012012D

 42 46  0  0  0  0            999 V2000
    1.4302   -0.8237    0.0000 N   0  0
    0.7144   -0.4125    0.0000 C   0  0
    0.7144    0.4125    0.0000 C   0  0
    0.0000    0.8250    0.0000 C   0  0
   -0.7144    0.4125    0.0000 C   0  0
   -0.7144   -0.4125    0.0000 C   0  0
    0.0000   -0.8250    0.0000 C   0  0
   -0.0017   -1.6504    0.0000 N   0  0
   -0.7171   -2.0622    0.0000 C   0  0
   -1.2882   -1.7312    0.0000 O   0  0
   -0.7188   -2.8876    0.0000 C   0  0
   -1.4333   -3.3002    0.0000 C   0  0
   -1.4333   -4.1252    0.0000 C   0  0
   -0.7188   -4.5377    0.0000 C   0  0
   -0.0044   -4.1252    0.0000 C   0  0
   -0.0043   -3.3002    0.0000 N   0  0
   -0.7172   -5.3631    0.0000 C   0  0
   -1.2882   -5.6941    0.0000 O   0  0
   -0.0018   -5.7748    0.0000 N   0  0
   -0.0001   -6.6003    0.0000 C   0  0
    0.7144   -7.0128    0.0000 C   0  0
    0.7144   -7.8378    0.0000 C   0  0
   -0.0001   -8.2503    0.0000 C   0  0
   -0.7146   -7.8379    0.0000 C   0  0
   -1.4303   -8.2491    0.0000 N   0  0
   -2.1445   -7.8354    0.0000 C   0  0
   -2.8890   -8.1744    0.0000 N   0  0
   -3.4389   -7.5594    0.0000 C   0  0
   -3.0239   -6.8463    0.0000 C   0  0
   -2.2175   -7.0206    0.0000 S   0  0
   -3.3570   -6.0911    0.0000 C   0  0
   -4.1655   -5.9415    0.0000 C   0  0
   -4.4408   -5.1638    0.0000 C   0  0
   -3.9048   -4.5366    0.0000 C   0  0
   -3.0936   -4.6872    0.0000 N   0  0
   -2.8185   -5.4649    0.0000 C   0  0
   -0.7146   -7.0129    0.0000 C   0  0
   -1.4312   -8.7991    0.0000 H   0  0
    0.4741   -5.4990    0.0000 H   0  0
    0.4742   -1.9263    0.0000 H   0  0
    1.9061   -0.5481    0.0000 H   0  0
    1.4312   -1.3737    0.0000 H   0  0
  1  2  1  0
  1 41  1  0
  1 42  1  0
  2  3  2  0
  3  4  1  0
  4  5  2  0
  5  6  1  0
  6  7  2  0
  7  2  1  0
  7  8  1  0
  8  9  1  0
  8 40  1  0
  9 10  2  0
  9 11  1  0
 11 12  2  0
 12 13  1  0
 13 14  2  0
 14 15  1  0
 14 17  1  0
 15 16  2  0
 16 11  1  0
 17 18  2  0
 17 19  1  0
 19 20  1  0
 19 39  1  0
 20 21  2  0
 21 22  1  0
 22 23  2  0
 23 24  1  0
 24 25  1  0
 24 37  2  0
 25 26  1  0
 25 38  1  0
 26 27  2  0
 27 28  1  0
 28 29  2  0
 29 30  1  0
 29 31  1  0
 30 26  1  0
 31 32  2  0
 32 33  1  0
 33 34  2  0
 34 35  1  0
 35 36  2  0
 36 31  1  0
 37 20  1  0
M  END
> <CMPD_CHEMBLID>
CHEMBL474863

> <STANDARD_TYPE>
IC50

> <RELATION>
=

> <STANDARD_VALUE>
24000

> <STANDARD_UNITS>
nM

> <Molecular_Weight>
507.56634

$$$$

  SciTegic11272012012D

 42 46  0  0  0  0            999 V2000
    1.2861   -0.7425    0.0000 C   0  0
    0.7145   -0.4125    0.0000 C   0  0
    0.7145    0.4125    0.0000 C   0  0
    0.0000    0.8250    0.0000 C   0  0
   -0.7145    0.4125    0.0000 C   0  0
   -1.4302    0.8237    0.0000 N   0  0
   -2.1445    0.4100    0.0000 C   0  0
   -2.1433   -0.2500    0.0000 O   0  0
   -2.8602    0.8213    0.0000 C   0  0
   -3.6035    0.4797    0.0000 C   0  0
   -4.1555    1.0928    0.0000 C   0  0
   -3.7430    1.8073    0.0000 C   0  0
   -2.9360    1.6358    0.0000 S   0  0
   -4.0766    2.5608    0.0000 C   0  0
   -4.7329    2.6309    0.0000 O   0  0
   -3.5905    3.2279    0.0000 N   0  0
   -3.9247    3.9827    0.0000 C   0  0
   -4.7452    4.0690    0.0000 C   0  0
   -5.0807    4.8227    0.0000 C   0  0
   -4.5958    5.4901    0.0000 C   0  0
   -3.7753    5.4039    0.0000 C   0  0
   -3.4397    4.6501    0.0000 C   0  0
   -2.6186    4.5655    0.0000 N   0  0
   -0.7145   -0.4125    0.0000 C   0  0
    0.0000   -0.8250    0.0000 C   0  0
   -0.0017   -1.6505    0.0000 N   0  0
   -0.7172   -2.0622    0.0000 C   0  0
   -0.7958   -2.8764    0.0000 N   0  0
   -1.6034   -3.0451    0.0000 C   0  0
   -2.0134   -2.3292    0.0000 C   0  0
   -1.4592   -1.7181    0.0000 S   0  0
   -2.8340   -2.2401    0.0000 C   0  0
   -3.3678   -2.8655    0.0000 C   0  0
   -4.1789   -2.7150    0.0000 C   0  0
   -4.4542   -1.9372    0.0000 C   0  0
   -3.9182   -1.3100    0.0000 N   0  0
   -3.1070   -1.4605    0.0000 C   0  0
    0.4742   -1.9263    0.0000 H   0  0
   -2.2960    5.0110    0.0000 H   0  0
   -2.3941    4.0635    0.0000 H   0  0
   -3.0436    3.1695    0.0000 H   0  0
   -1.4312    1.3738    0.0000 H   0  0
  1  2  1  0
  2  3  2  0
  3  4  1  0
  4  5  2  0
  5  6  1  0
  5 24  1  0
  6  7  1  0
  6 42  1  0
  7  8  2  0
  7  9  1  0
  9 10  2  0
 10 11  1  0
 11 12  2  0
 12 13  1  0
 12 14  1  0
 13  9  1  0
 14 15  2  0
 14 16  1  0
 16 17  1  0
 16 41  1  0
 17 18  2  0
 18 19  1  0
 19 20  2  0
 20 21  1  0
 21 22  2  0
 22 17  1  0
 22 23  1  0
 23 39  1  0
 23 40  1  0
 24 25  2  0
 25  2  1  0
 25 26  1  0
 26 27  1  0
 26 38  1  0
 27 28  2  0
 28 29  1  0
 29 30  2  0
 30 31  1  0
 30 32  1  0
 31 27  1  0
 32 33  2  0
 33 34  1  0
 34 35  2  0
 35 36  1  0
 36 37  2  0
 37 32  1  0
M  END
> <CMPD_CHEMBLID>
CHEMBL515109

> <STANDARD_TYPE>
IC50

> <RELATION>
=

> <STANDARD_VALUE>
24000

> <STANDARD_UNITS>
nM

> <Molecular_Weight>
526.63258

$$$$

  SciTegic11272012012D

 41 45  0  0  0  0            999 V2000
    1.4302   -0.8237    0.0000 N   0  0
    0.7145   -0.4125    0.0000 C   0  0
    0.7145    0.4125    0.0000 C   0  0
    0.0000    0.8250    0.0000 C   0  0
   -0.7145    0.4125    0.0000 C   0  0
   -0.7145   -0.4125    0.0000 C   0  0
    0.0000   -0.8250    0.0000 C   0  0
   -0.0017   -1.6504    0.0000 N   0  0
   -0.7171   -2.0622    0.0000 C   0  0
   -1.2882   -1.7312    0.0000 O   0  0
   -0.7189   -2.8876    0.0000 C   0  0
   -1.3863   -3.3605    0.0000 C   0  0
   -1.1314   -4.1452    0.0000 C   0  0
   -0.3064   -4.1452    0.0000 C   0  0
   -0.0514   -3.3605    0.0000 S   0  0
    0.1794   -4.8108    0.0000 C   0  0
   -0.0880   -5.4142    0.0000 O   0  0
    1.0002   -4.7234    0.0000 N   0  0
    1.4868   -5.3901    0.0000 C   0  0
    2.3073   -5.3040    0.0000 C   0  0
    2.7923   -5.9714    0.0000 C   0  0
    2.4567   -6.7250    0.0000 C   0  0
    1.6363   -6.8113    0.0000 C   0  0
    1.2989   -7.5647    0.0000 N   0  0
    0.4779   -7.6499    0.0000 C   0  0
    0.0749   -8.3617    0.0000 N   0  0
   -0.7314   -8.1874    0.0000 C   0  0
   -0.8149   -7.3666    0.0000 C   0  0
   -0.0601   -7.0337    0.0000 S   0  0
   -1.5283   -6.9515    0.0000 C   0  0
   -2.2704   -7.3057    0.0000 C   0  0
   -2.9502   -6.8383    0.0000 C   0  0
   -2.8853   -6.0159    0.0000 C   0  0
   -2.1405   -5.6608    0.0000 N   0  0
   -1.4607   -6.1283    0.0000 C   0  0
    1.1513   -6.1439    0.0000 C   0  0
    1.6215   -8.0102    0.0000 H   0  0
    1.2230   -4.2205    0.0000 H   0  0
    0.4742   -1.9263    0.0000 H   0  0
    1.9061   -0.5481    0.0000 H   0  0
    1.4312   -1.3737    0.0000 H   0  0
  1  2  1  0
  1 40  1  0
  1 41  1  0
  2  3  2  0
  3  4  1  0
  4  5  2  0
  5  6  1  0
  6  7  2  0
  7  2  1  0
  7  8  1  0
  8  9  1  0
  8 39  1  0
  9 10  2  0
  9 11  1  0
 11 12  2  0
 12 13  1  0
 13 14  2  0
 14 15  1  0
 14 16  1  0
 15 11  1  0
 16 17  2  0
 16 18  1  0
 18 19  1  0
 18 38  1  0
 19 20  2  0
 20 21  1  0
 21 22  2  0
 22 23  1  0
 23 24  1  0
 23 36  2  0
 24 25  1  0
 24 37  1  0
 25 26  2  0
 26 27  1  0
 27 28  2  0
 28 29  1  0
 28 30  1  0
 29 25  1  0
 30 31  2  0
 31 32  1  0
 32 33  2  0
 33 34  1  0
 34 35  2  0
 35 30  1  0
 36 19  1  0
M  END
> <CMPD_CHEMBLID>
CHEMBL474208

> <STANDARD_TYPE>
IC50

> <RELATION>
=

> <STANDARD_VALUE>
24000

> <STANDARD_UNITS>
nM

> <Molecular_Weight>
512.606

$$$$

  SciTegic11272012012D

 35 38  0  0  0  0            999 V2000
    2.0013   -0.4930    0.0000 C   0  0
    1.4301   -0.8237    0.0000 N   0  0
    0.7144   -0.4125    0.0000 C   0  0
    0.7144    0.4125    0.0000 N   0  0
    0.0000    0.8250    0.0000 C   0  0
   -0.7144    0.4125    0.0000 N   0  0
   -0.7144   -0.4125    0.0000 C   0  0
    0.0000   -0.8250    0.0000 C   0  0
   -0.1713   -1.6316    0.0000 N   0  0
   -0.9917   -1.7178    0.0000 C   0  0
   -1.3273   -0.9641    0.0000 N   0  0
   -2.1336   -0.7943    0.0000 C   0  0
   -2.6852   -1.4084    0.0000 C   0  0
   -3.4930   -1.2383    0.0000 C   0  0
   -3.7478   -0.4536    0.0000 C   0  0
   -4.5548   -0.2820    0.0000 C   0  0
   -4.8113    0.5026    0.0000 N   0  0
   -5.6190    0.6731    0.0000 C   0  0
   -6.0598    0.1820    0.0000 O   0  0
   -5.8755    1.4577    0.0000 C   0  0
   -6.6825    1.6294    0.0000 C   0  0
   -6.9373    2.4140    0.0000 C   0  0
   -6.3852    3.0271    0.0000 C   0  0
   -5.5783    2.8554    0.0000 C   0  0
   -5.3234    2.0708    0.0000 C   0  0
   -5.0258    3.4688    0.0000 C   0  0
   -5.2293    4.0966    0.0000 F   0  0
   -4.3804    3.3313    0.0000 F   0  0
   -4.5839    3.9590    0.0000 F   0  0
   -5.1069   -0.8950    0.0000 C   0  0
   -4.8520   -1.6797    0.0000 C   0  0
   -4.0451   -1.8513    0.0000 C   0  0
   -3.8413   -2.4790    0.0000 C   0  0
   -4.4439    0.9119    0.0000 H   0  0
    1.4311   -1.3737    0.0000 H   0  0
  1  2  1  0
  2  3  1  0
  2 35  1  0
  3  4  2  0
  4  5  1  0
  5  6  2  0
  6  7  1  0
  7  8  2  0
  8  3  1  0
  8  9  1  0
  9 10  2  0
 10 11  1  0
 11  7  1  0
 11 12  1  0
 12 13  2  0
 13 14  1  0
 14 15  2  0
 15 16  1  0
 16 17  1  0
 16 30  2  0
 17 18  1  0
 17 34  1  0
 18 19  2  0
 18 20  1  0
 20 21  2  0
 21 22  1  0
 22 23  2  0
 23 24  1  0
 24 25  2  0
 24 26  1  0
 25 20  1  0
 26 27  1  0
 26 28  1  0
 26 29  1  0
 30 31  1  0
 31 32  2  0
 32 14  1  0
 32 33  1  0
M  END
> <CMPD_CHEMBLID>
CHEMBL558475

> <STANDARD_TYPE>
IC50

> <RELATION>
=

> <STANDARD_VALUE>
25000

> <STANDARD_UNITS>
nM

> <Molecular_Weight>
452.43177

$$$$

  SciTegic11272012012D

 28 31  0  0  0  0            999 V2000
   -0.2704   -2.1220    0.0000 C   0  0
    0.1713   -1.6316    0.0000 C   0  0
    0.9918   -1.7178    0.0000 N   0  0
    1.3273   -0.9642    0.0000 N   0  0
    1.9729   -0.8269    0.0000 C   0  0
    0.7145   -0.4125    0.0000 C   0  0
    0.7145    0.4125    0.0000 N   0  0
    0.0000    0.8250    0.0000 N   0  0
   -0.7145    0.4125    0.0000 C   0  0
   -1.4302    0.8237    0.0000 N   0  0
   -2.1445    0.4100    0.0000 C   0  0
   -2.8604    0.8200    0.0000 C   0  0
   -3.5735    0.4050    0.0000 C   0  0
   -3.5707   -0.4200    0.0000 C   0  0
   -2.8547   -0.8300    0.0000 C   0  0
   -2.1417   -0.4150    0.0000 C   0  0
   -4.2841   -0.8352    0.0000 S   0  0
   -4.2816   -1.4952    0.0000 O   0  0
   -3.7113   -1.1631    0.0000 O   0  0
   -5.0006   -0.4254    0.0000 N   0  0
   -5.7134   -0.8408    0.0000 C   0  0
   -6.4296   -0.4313    0.0000 C   0  0
   -6.4330    0.3938    0.0000 C   0  0
   -5.7202    0.8092    0.0000 C   0  0
   -5.0040    0.3996    0.0000 C   0  0
   -0.7145   -0.4125    0.0000 N   0  0
    0.0000   -0.8250    0.0000 C   0  0
   -1.4312    1.3738    0.0000 H   0  0
  1  2  1  0
  2  3  2  0
  3  4  1  0
  4  5  1  0
  4  6  1  0
  6  7  2  0
  7  8  1  0
  8  9  2  0
  9 10  1  0
  9 26  1  0
 10 11  1  0
 10 28  1  0
 11 12  2  0
 12 13  1  0
 13 14  2  0
 14 15  1  0
 14 17  1  0
 15 16  2  0
 16 11  1  0
 17 18  2  0
 17 19  2  0
 17 20  1  0
 20 21  1  0
 21 22  1  0
 22 23  1  0
 23 24  1  0
 24 25  1  0
 25 20  1  0
 26 27  2  0
 27  2  1  0
 27  6  1  0
M  END
> <CMPD_CHEMBLID>
CHEMBL3237853

> <STANDARD_TYPE>
IC50

> <RELATION>
>

> <STANDARD_VALUE>
25000

> <STANDARD_UNITS>
nM

> <Molecular_Weight>
387.45934

$$$$

  SciTegic11272012012D

 28 31  0  0  0  0            999 V2000
   -0.2704   -2.1220    0.0000 C   0  0
    0.1713   -1.6316    0.0000 C   0  0
    0.9918   -1.7178    0.0000 N   0  0
    1.3273   -0.9642    0.0000 N   0  0
    1.9729   -0.8269    0.0000 C   0  0
    0.7145   -0.4125    0.0000 C   0  0
    0.7145    0.4125    0.0000 N   0  0
    0.0000    0.8250    0.0000 N   0  0
   -0.7145    0.4125    0.0000 C   0  0
   -1.4302    0.8237    0.0000 N   0  0
   -2.1445    0.4100    0.0000 C   0  0
   -2.8604    0.8200    0.0000 C   0  0
   -3.5735    0.4050    0.0000 C   0  0
   -3.5707   -0.4200    0.0000 C   0  0
   -2.8547   -0.8300    0.0000 C   0  0
   -2.1417   -0.4150    0.0000 C   0  0
   -4.2841   -0.8352    0.0000 S   0  0
   -4.2816   -1.4952    0.0000 O   0  0
   -3.7113   -1.1631    0.0000 O   0  0
   -5.0006   -0.4254    0.0000 N   0  0
   -5.7134   -0.8408    0.0000 C   0  0
   -6.4296   -0.4313    0.0000 C   0  0
   -6.4330    0.3938    0.0000 O   0  0
   -5.7202    0.8092    0.0000 C   0  0
   -5.0040    0.3996    0.0000 C   0  0
   -0.7145   -0.4125    0.0000 N   0  0
    0.0000   -0.8250    0.0000 C   0  0
   -1.4312    1.3738    0.0000 H   0  0
  1  2  1  0
  2  3  2  0
  3  4  1  0
  4  5  1  0
  4  6  1  0
  6  7  2  0
  7  8  1  0
  8  9  2  0
  9 10  1  0
  9 26  1  0
 10 11  1  0
 10 28  1  0
 11 12  2  0
 12 13  1  0
 13 14  2  0
 14 15  1  0
 14 17  1  0
 15 16  2  0
 16 11  1  0
 17 18  2  0
 17 19  2  0
 17 20  1  0
 20 21  1  0
 21 22  1  0
 22 23  1  0
 23 24  1  0
 24 25  1  0
 25 20  1  0
 26 27  2  0
 27  2  1  0
 27  6  1  0
M  END
> <CMPD_CHEMBLID>
CHEMBL3237849

> <STANDARD_TYPE>
IC50

> <RELATION>
>

> <STANDARD_VALUE>
25000

> <STANDARD_UNITS>
nM

> <Molecular_Weight>
389.43216

$$$$

  SciTegic11272012012D

 43 47  0  0  0  0            999 V2000
    1.2861   -0.7425    0.0000 C   0  0
    0.7145   -0.4125    0.0000 C   0  0
    0.7145    0.4125    0.0000 C   0  0
    0.0000    0.8250    0.0000 C   0  0
   -0.7145    0.4125    0.0000 C   0  0
   -1.4302    0.8237    0.0000 N   0  0
   -2.1445    0.4100    0.0000 C   0  0
   -2.1433   -0.2500    0.0000 O   0  0
   -2.8602    0.8213    0.0000 C   0  0
   -3.6035    0.4797    0.0000 C   0  0
   -4.1555    1.0928    0.0000 C   0  0
   -3.7430    1.8073    0.0000 C   0  0
   -2.9360    1.6358    0.0000 S   0  0
   -4.0766    2.5608    0.0000 C   0  0
   -4.7329    2.6309    0.0000 O   0  0
   -3.5905    3.2279    0.0000 N   0  0
   -3.9247    3.9827    0.0000 C   0  0
   -4.7452    4.0690    0.0000 C   0  0
   -5.0807    4.8227    0.0000 C   0  0
   -4.5958    5.4901    0.0000 C   0  0
   -3.7753    5.4038    0.0000 C   0  0
   -3.4397    4.6501    0.0000 C   0  0
   -2.6186    4.5655    0.0000 N   0  0
   -0.7145   -0.4125    0.0000 C   0  0
    0.0000   -0.8250    0.0000 C   0  0
   -0.0017   -1.6505    0.0000 N   0  0
   -0.7171   -2.0622    0.0000 C   0  0
   -0.7201   -2.8872    0.0000 N   0  0
   -1.4359   -3.2972    0.0000 C   0  0
   -2.1490   -2.8822    0.0000 C   0  0
   -2.1461   -2.0572    0.0000 C   0  0
   -1.4302   -1.6472    0.0000 N   0  0
   -2.8652   -3.2925    0.0000 C   0  0
   -2.8695   -4.1175    0.0000 C   0  0
   -3.5860   -4.5264    0.0000 C   0  0
   -4.2984   -4.1103    0.0000 C   0  0
   -4.2942   -3.2853    0.0000 N   0  0
   -3.5777   -2.8764    0.0000 C   0  0
    0.4742   -1.9263    0.0000 H   0  0
   -2.2960    5.0110    0.0000 H   0  0
   -2.3941    4.0635    0.0000 H   0  0
   -3.0436    3.1695    0.0000 H   0  0
   -1.4312    1.3737    0.0000 H   0  0
  1  2  1  0
  2  3  2  0
  3  4  1  0
  4  5  2  0
  5  6  1  0
  5 24  1  0
  6  7  1  0
  6 43  1  0
  7  8  2  0
  7  9  1  0
  9 10  2  0
 10 11  1  0
 11 12  2  0
 12 13  1  0
 12 14  1  0
 13  9  1  0
 14 15  2  0
 14 16  1  0
 16 17  1  0
 16 42  1  0
 17 18  2  0
 18 19  1  0
 19 20  2  0
 20 21  1  0
 21 22  2  0
 22 17  1  0
 22 23  1  0
 23 40  1  0
 23 41  1  0
 24 25  2  0
 25  2  1  0
 25 26  1  0
 26 27  1  0
 26 39  1  0
 27 28  2  0
 28 29  1  0
 29 30  2  0
 30 31  1  0
 30 33  1  0
 31 32  2  0
 32 27  1  0
 33 34  2  0
 34 35  1  0
 35 36  2  0
 36 37  1  0
 37 38  2  0
 38 33  1  0
M  END
> <CMPD_CHEMBLID>
CHEMBL473825

> <STANDARD_TYPE>
IC50

> <RELATION>
=

> <STANDARD_VALUE>
25000

> <STANDARD_UNITS>
nM

> <Molecular_Weight>
521.59292

$$$$

  SciTegic11272012012D

 32 36  0  0  0  0            999 V2000
    2.1455    0.2461    0.0000 C   0  0
    2.1445   -0.4139    0.0000 C   0  0
    1.4293   -0.8252    0.0000 C   0  0
    1.4281   -1.6502    0.0000 C   0  0
    0.8560   -1.9793    0.0000 O   0  0
    2.1419   -2.0639    0.0000 N   0  0
    2.8570   -1.6525    0.0000 C   0  0
    2.8583   -0.8275    0.0000 C   0  0
    2.1405   -2.8893    0.0000 C   0  0
    1.4261   -3.3019    0.0000 C   0  0
    1.4261   -4.1269    0.0000 C   0  0
    2.1405   -4.5393    0.0000 C   0  0
    2.8550   -4.1268    0.0000 C   0  0
    2.8550   -3.3018    0.0000 C   0  0
    2.1405   -5.3648    0.0000 C   0  0
    1.4739   -5.8387    0.0000 O   0  0
    1.7301   -6.6229    0.0000 C   0  0
    2.5551   -6.6216    0.0000 C   0  0
    2.8087   -5.8366    0.0000 N   0  0
    0.7144   -0.4125    0.0000 C   0  0
    0.7144    0.4125    0.0000 C   0  0
    0.0000    0.8250    0.0000 C   0  0
   -0.7144    0.4125    0.0000 C   0  0
   -1.4290    0.8250    0.0000 N   0  0
   -2.1434    0.4125    0.0000 C   0  0
   -2.8591    0.8237    0.0000 N   0  0
   -2.1434   -0.4125    0.0000 N   0  0
   -1.4290   -0.8250    0.0000 C   0  0
   -0.7144   -0.4125    0.0000 C   0  0
    0.0000   -0.8250    0.0000 C   0  0
   -3.3350    0.5481    0.0000 H   0  0
   -2.8601    1.3737    0.0000 H   0  0
  1  2  1  0
  2  3  2  0
  3  4  1  0
  3 20  1  0
  4  5  2  0
  4  6  1  0
  6  7  1  0
  6  9  1  0
  7  8  2  0
  8  2  1  0
  9 10  2  0
 10 11  1  0
 11 12  2  0
 12 13  1  0
 12 15  1  0
 13 14  2  0
 14  9  1  0
 15 16  1  0
 16 17  1  0
 17 18  2  0
 18 19  1  0
 19 15  2  0
 20 21  2  0
 21 22  1  0
 22 23  2  0
 23 24  1  0
 24 25  2  0
 25 26  1  0
 25 27  1  0
 26 31  1  0
 26 32  1  0
 27 28  2  0
 28 29  1  0
 29 23  1  0
 29 30  2  0
 30 20  1  0
M  END
> <CMPD_CHEMBLID>
CHEMBL525893

> <STANDARD_TYPE>
IC50

> <RELATION>
>

> <STANDARD_VALUE>
25000

> <STANDARD_UNITS>
nM

> <Molecular_Weight>
395.41338

$$$$

  SciTegic11272012012D

 29 32  0  0  0  0            999 V2000
    2.8661    1.4821    0.0000 C   0  0
    2.8636    0.8221    0.0000 C   0  0
    2.1475    0.4116    0.0000 O   0  0
    2.1445   -0.4139    0.0000 C   0  0
    2.8583   -0.8275    0.0000 C   0  0
    2.8570   -1.6525    0.0000 C   0  0
    2.1419   -2.0639    0.0000 C   0  0
    1.4281   -1.6502    0.0000 C   0  0
    1.4293   -0.8252    0.0000 C   0  0
    0.7144   -0.4125    0.0000 C   0  0
    0.7144    0.4125    0.0000 N   0  0
    0.0000    0.8250    0.0000 N   0  0
   -0.7144    0.4125    0.0000 C   0  0
   -0.7144   -0.4125    0.0000 C   0  0
    0.0000   -0.8250    0.0000 N   0  0
   -1.4986   -0.6674    0.0000 C   0  0
   -1.7025   -1.2951    0.0000 C   0  0
   -1.9836    0.0000    0.0000 N   0  0
   -1.4986    0.6674    0.0000 N   0  0
   -1.7025    1.2951    0.0000 C   0  0
    2.1405   -2.8893    0.0000 S   0  0
    1.5684   -3.2182    0.0000 O   0  0
    1.5695   -2.5583    0.0000 O   0  0
    2.8545   -3.3036    0.0000 N   0  0
    2.8527   -4.1286    0.0000 C   0  0
    3.5663   -4.5427    0.0000 C   0  0
    4.2816   -4.1318    0.0000 C   0  0
    4.2835   -3.3068    0.0000 C   0  0
    3.5699   -2.8927    0.0000 C   0  0
  1  2  1  0
  2  3  1  0
  3  4  1  0
  4  5  2  0
  5  6  1  0
  6  7  2  0
  7  8  1  0
  7 21  1  0
  8  9  2  0
  9  4  1  0
  9 10  1  0
 10 11  2  0
 11 12  1  0
 12 13  2  0
 13 14  1  0
 14 15  2  0
 14 16  1  0
 15 10  1  0
 16 17  1  0
 16 18  2  0
 18 19  1  0
 19 13  1  0
 19 20  1  0
 21 22  2  0
 21 23  2  0
 21 24  1  0
 24 25  1  0
 25 26  1  0
 26 27  1  0
 27 28  1  0
 28 29  1  0
 29 24  1  0
M  END
> <CMPD_CHEMBLID>
CHEMBL3261390

> <STANDARD_TYPE>
IC50

> <RELATION>
>

> <STANDARD_VALUE>
25000

> <STANDARD_UNITS>
nM

> <Molecular_Weight>
416.49726

$$$$

  SciTegic11272012012D

 37 40  0  0  0  0            999 V2000
    1.2861   -0.7425    0.0000 C   0  0
    0.7144   -0.4125    0.0000 C   0  0
    0.7144    0.4125    0.0000 C   0  0
    0.0000    0.8250    0.0000 C   0  0
   -0.7144    0.4125    0.0000 C   0  0
   -1.4302    0.8237    0.0000 N   0  0
   -2.1444    0.4100    0.0000 C   0  0
   -2.1433   -0.2500    0.0000 O   0  0
   -2.8602    0.8213    0.0000 C   0  0
   -3.5747    0.4088    0.0000 C   0  0
   -4.2892    0.8213    0.0000 C   0  0
   -4.2892    1.6463    0.0000 C   0  0
   -5.0049    2.0575    0.0000 N   0  0
   -3.5747    2.0588    0.0000 C   0  0
   -3.5731    2.8843    0.0000 N   0  0
   -2.8602    1.6463    0.0000 C   0  0
   -0.7144   -0.4125    0.0000 C   0  0
    0.0000   -0.8250    0.0000 C   0  0
   -0.0017   -1.6504    0.0000 N   0  0
   -0.7171   -2.0622    0.0000 C   0  0
   -0.7201   -2.8872    0.0000 N   0  0
   -1.4359   -3.2972    0.0000 C   0  0
   -2.1490   -2.8822    0.0000 C   0  0
   -2.1461   -2.0572    0.0000 C   0  0
   -1.4302   -1.6472    0.0000 N   0  0
   -2.8595   -1.6421    0.0000 C   0  0
   -3.5761   -2.0509    0.0000 C   0  0
   -4.2885   -1.6348    0.0000 C   0  0
   -4.2843   -0.8099    0.0000 C   0  0
   -3.5678   -0.4009    0.0000 N   0  0
   -2.8554   -0.8170    0.0000 C   0  0
    0.4742   -1.9263    0.0000 H   0  0
   -3.0963    3.1585    0.0000 H   0  0
   -4.0489    3.1600    0.0000 H   0  0
   -5.4808    1.7818    0.0000 H   0  0
   -5.0059    2.6075    0.0000 H   0  0
   -1.4312    1.3737    0.0000 H   0  0
  1  2  1  0
  2  3  2  0
  3  4  1  0
  4  5  2  0
  5  6  1  0
  5 17  1  0
  6  7  1  0
  6 37  1  0
  7  8  2  0
  7  9  1  0
  9 10  2  0
 10 11  1  0
 11 12  2  0
 12 13  1  0
 12 14  1  0
 13 35  1  0
 13 36  1  0
 14 15  1  0
 14 16  2  0
 15 33  1  0
 15 34  1  0
 16  9  1  0
 17 18  2  0
 18  2  1  0
 18 19  1  0
 19 20  1  0
 19 32  1  0
 20 21  2  0
 21 22  1  0
 22 23  2  0
 23 24  1  0
 24 25  2  0
 24 26  1  0
 25 20  1  0
 26 27  2  0
 27 28  1  0
 28 29  2  0
 29 30  1  0
 30 31  2  0
 31 26  1  0
M  END
> <CMPD_CHEMBLID>
CHEMBL1923084

> <STANDARD_TYPE>
IC50

> <RELATION>
>

> <STANDARD_VALUE>
25000

> <STANDARD_UNITS>
nM

> <Molecular_Weight>
411.45914

$$$$

  SciTegic11272012012D

 17 19  0  0  0  0            999 V2000
   -0.2704   -2.1220    0.0000 C   0  0
    0.1713   -1.6316    0.0000 C   0  0
    0.9918   -1.7178    0.0000 N   0  0
    1.3273   -0.9642    0.0000 N   0  0
    0.7145   -0.4125    0.0000 C   0  0
    0.7145    0.4125    0.0000 C   0  0
    0.0000    0.8250    0.0000 C   0  0
   -0.7145    0.4125    0.0000 C   0  0
   -0.7145   -0.4125    0.0000 C   0  0
    0.0000   -0.8250    0.0000 C   0  0
   -1.4293    0.8252    0.0000 C   0  0
   -1.4307    1.6502    0.0000 C   0  0
   -2.1459    2.0616    0.0000 C   0  0
   -2.8597    1.6480    0.0000 C   0  0
   -2.8583    0.8230    0.0000 N   0  0
   -2.1432    0.4116    0.0000 C   0  0
    1.8654   -0.8498    0.0000 H   0  0
  1  2  1  0
  2  3  2  0
  3  4  1  0
  4  5  1  0
  4 17  1  0
  5  6  2  0
  6  7  1  0
  7  8  2  0
  8  9  1  0
  8 11  1  0
  9 10  2  0
 10  2  1  0
 10  5  1  0
 11 12  2  0
 12 13  1  0
 13 14  2  0
 14 15  1  0
 15 16  2  0
 16 11  1  0
M  END
> <CMPD_CHEMBLID>
CHEMBL1967252

> <STANDARD_TYPE>
Ki

> <RELATION>
=

> <STANDARD_VALUE>
25118.86

> <STANDARD_UNITS>
nM

> <Molecular_Weight>
209.24654

$$$$

  SciTegic11272012012D

 13 14  0  0  0  0            999 V2000
   -0.3790   -2.2450    0.0000 N   0  0
    0.1713   -1.6316    0.0000 C   0  0
    0.9918   -1.7178    0.0000 N   0  0
    1.3273   -0.9642    0.0000 N   0  0
    0.7145   -0.4125    0.0000 C   0  0
    0.7145    0.4125    0.0000 C   0  0
    0.0000    0.8250    0.0000 N   0  0
   -0.7145    0.4125    0.0000 C   0  0
   -0.7145   -0.4125    0.0000 C   0  0
   -1.2861   -0.7425    0.0000 Cl  0  0
    0.0000   -0.8250    0.0000 N   0  0
   -0.2083   -2.7679    0.0000 H   0  0
   -0.9171   -2.1315    0.0000 H   0  0
  1  2  1  0
  1 12  1  0
  1 13  1  0
  2  3  2  0
  3  4  1  0
  4  5  2  0
  5  6  1  0
  6  7  2  0
  7  8  1  0
  8  9  2  0
  9 10  1  0
  9 11  1  0
 11  2  1  0
 11  5  1  0
M  END
> <CMPD_CHEMBLID>
CHEMBL1968130

> <STANDARD_TYPE>
Ki

> <RELATION>
=

> <STANDARD_VALUE>
25118.86

> <STANDARD_UNITS>
nM

> <Molecular_Weight>
169.57176

$$$$

  SciTegic11272012012D

 19 21  0  0  0  0            999 V2000
    2.1408   -2.7239    0.0000 C   0  0
    2.1419   -2.0639    0.0000 C   0  0
    2.8570   -1.6525    0.0000 C   0  0
    2.8583   -0.8275    0.0000 C   0  0
    2.1445   -0.4139    0.0000 C   0  0
    1.4293   -0.8252    0.0000 C   0  0
    1.4281   -1.6502    0.0000 C   0  0
    0.7145   -0.4125    0.0000 C   0  0
    0.7145    0.4125    0.0000 C   0  0
    0.0000    0.8250    0.0000 C   0  0
   -0.7145    0.4125    0.0000 C   0  0
   -0.7145   -0.4125    0.0000 C   0  0
   -1.3273   -0.9642    0.0000 O   0  0
   -0.9918   -1.7178    0.0000 N   0  0
   -0.1713   -1.6316    0.0000 C   0  0
    0.3790   -2.2450    0.0000 N   0  0
    0.0000   -0.8250    0.0000 C   0  0
    0.2083   -2.7679    0.0000 H   0  0
    0.9171   -2.1315    0.0000 H   0  0
  1  2  1  0
  2  3  2  0
  3  4  1  0
  4  5  2  0
  5  6  1  0
  6  7  2  0
  6  8  1  0
  7  2  1  0
  8  9  2  0
  9 10  1  0
 10 11  2  0
 11 12  1  0
 12 13  1  0
 13 14  1  0
 14 15  2  0
 15 16  1  0
 15 17  1  0
 16 18  1  0
 16 19  1  0
 17  8  1  0
 17 12  2  0
M  END
> <CMPD_CHEMBLID>
CHEMBL1980376

> <STANDARD_TYPE>
Ki

> <RELATION>
=

> <STANDARD_VALUE>
25118.86

> <STANDARD_UNITS>
nM

> <Molecular_Weight>
224.25788

$$$$

  SciTegic11272012012D

 18 20  0  0  0  0            999 V2000
    1.4302   -0.8238    0.0000 N   0  0
    0.7145   -0.4125    0.0000 C   0  0
    0.7145    0.4125    0.0000 N   0  0
    0.0000    0.8250    0.0000 C   0  0
   -0.7145    0.4125    0.0000 C   0  0
   -0.7145   -0.4125    0.0000 C   0  0
   -1.3273   -0.9642    0.0000 C   0  0
   -0.9918   -1.7179    0.0000 N   0  0
   -0.1713   -1.6316    0.0000 C   0  0
    0.3811   -2.2450    0.0000 C   0  0
    0.1862   -3.0438    0.0000 C   0  0
    0.7828   -3.6136    0.0000 C   0  0
    1.5746   -3.3817    0.0000 C   0  0
    1.7697   -2.5801    0.0000 C   0  0
    1.1730   -2.0103    0.0000 C   0  0
    0.0000   -0.8250    0.0000 N   0  0
    1.9062   -0.5481    0.0000 H   0  0
    1.4312   -1.3738    0.0000 H   0  0
  1  2  1  0
  1 17  1  0
  1 18  1  0
  2  3  2  0
  3  4  1  0
  4  5  2  0
  5  6  1  0
  6  7  2  0
  7  8  1  0
  8  9  2  0
  9 10  1  0
  9 16  1  0
 10 11  2  0
 11 12  1  0
 12 13  2  0
 13 14  1  0
 14 15  2  0
 15 10  1  0
 16  2  1  0
 16  6  1  0
M  END
> <CMPD_CHEMBLID>
CHEMBL1969156

> <STANDARD_TYPE>
Ki

> <RELATION>
=

> <STANDARD_VALUE>
25118.86

> <STANDARD_UNITS>
nM

> <Molecular_Weight>
210.2346

$$$$

  SciTegic11272012012D

 18 20  0  0  0  0            999 V2000
   -0.3789   -2.2450    0.0000 N   0  0
    0.1713   -1.6316    0.0000 C   0  0
    0.9918   -1.7178    0.0000 N   0  0
    1.3273   -0.9641    0.0000 C   0  0
    0.7144   -0.4125    0.0000 C   0  0
    0.7144    0.4125    0.0000 C   0  0
    0.0000    0.8250    0.0000 C   0  0
   -0.7144    0.4125    0.0000 C   0  0
   -0.7144   -0.4125    0.0000 C   0  0
   -1.4293   -0.8252    0.0000 C   0  0
   -2.1445   -0.4139    0.0000 C   0  0
   -2.8583   -0.8275    0.0000 C   0  0
   -2.8570   -1.6525    0.0000 C   0  0
   -2.1419   -2.0639    0.0000 C   0  0
   -1.4280   -1.6502    0.0000 C   0  0
    0.0000   -0.8250    0.0000 N   0  0
   -0.2083   -2.7679    0.0000 H   0  0
   -0.9171   -2.1315    0.0000 H   0  0
  1  2  1  0
  1 17  1  0
  1 18  1  0
  2  3  2  0
  3  4  1  0
  4  5  2  0
  5  6  1  0
  6  7  2  0
  7  8  1  0
  8  9  2  0
  9 10  1  0
  9 16  1  0
 10 11  2  0
 11 12  1  0
 12 13  2  0
 13 14  1  0
 14 15  2  0
 15 10  1  0
 16  2  1  0
 16  5  1  0
M  END
> <CMPD_CHEMBLID>
CHEMBL1997119

> <STANDARD_TYPE>
Ki

> <RELATION>
=

> <STANDARD_VALUE>
25118.86

> <STANDARD_UNITS>
nM

> <Molecular_Weight>
209.24654

$$$$

  SciTegic11272012012D

 47 47  0  0  0  0            999 V2000
    6.2720   -9.4164    0.0000 C   0  0
    5.7015   -9.0854    0.0000 C   0  0
    5.7026   -8.2604    0.0000 C   0  0
    4.9890   -7.8464    0.0000 C   0  0
    4.9901   -7.0213    0.0000 C   0  0
    4.2765   -6.6074    0.0000 N   0  0
    3.5621   -7.0201    0.0000 C   0  0
    3.5619   -7.8452    0.0000 C   0  0
    2.8475   -8.2579    0.0000 C   0  0
    2.8472   -9.0829    0.0000 C   0  0
    2.2761   -9.4130    0.0000 C   0  0
    4.2776   -5.7823    0.0000 C   0  0
    4.8495   -5.4535    0.0000 O   0  0
    3.5640   -5.3683    0.0000 C   0  0
    2.9922   -5.6972    0.0000 C   0  0
    3.5652   -4.5433    0.0000 N   0  0
    2.8516   -4.1293    0.0000 C   0  0
    2.2797   -4.4582    0.0000 O   0  0
    2.8527   -3.3043    0.0000 C   0  0
    2.1391   -2.8903    0.0000 N   0  0
    2.1402   -2.0653    0.0000 C   0  0
    2.7121   -1.7365    0.0000 O   0  0
    1.4266   -1.6513    0.0000 C   0  0
    1.4278   -0.8263    0.0000 C   0  0
    2.1426   -0.4143    0.0000 C   0  0
    2.1450    0.4103    0.0000 C   0  0
    2.8602    0.8205    0.0000 C   0  0
    3.5731    0.4062    0.0000 C   0  0
    4.2897    0.8152    0.0000 O   0  0
    5.0024    0.3996    0.0000 P   0  0
    4.9994   -0.2600    0.0000 O   0  0
    5.7189    0.8086    0.0000 O   0  0
    4.2727   -0.0186    0.0000 O   0  0
    3.5708   -0.4184    0.0000 C   0  0
    2.8555   -0.8286    0.0000 C   0  0
    0.7105   -2.0611    0.0000 N   0  0
   -0.0026   -1.6464    0.0000 C   0  0
   -0.5752   -1.9740    0.0000 O   0  0
   -0.0004   -0.9867    0.0000 C   0  0
    3.5671   -2.8916    0.0000 C   0  0
    3.5673   -2.2319    0.0000 C   0  0
    4.1384   -3.2214    0.0000 C   0  0
    0.7086   -2.6108    0.0000 H   0  0
    4.2706   -0.5683    0.0000 H   0  0
    6.1938    0.5317    0.0000 H   0  0
    1.6625   -3.1644    0.0000 H   0  0
    4.0418   -4.2693    0.0000 H   0  0
  1  2  1  0
  2  3  1  0
  3  4  1  0
  4  5  1  0
  5  6  1  0
  6  7  1  0
  6 12  1  0
  7  8  1  0
  8  9  1  0
  9 10  1  0
 10 11  1  0
 12 13  2  0
 12 14  1  0
 14 15  1  0
 14 16  1  0
 16 17  1  0
 16 47  1  0
 17 18  2  0
 17 19  1  0
 19 20  1  0
 19 40  1  0
 20 21  1  0
 20 46  1  0
 21 22  2  0
 21 23  1  0
 23 24  1  0
 23 36  1  0
 24 25  1  0
 25 26  2  0
 26 27  1  0
 27 28  2  0
 28 29  1  0
 28 34  1  0
 29 30  1  0
 30 31  2  0
 30 32  1  0
 30 33  1  0
 32 45  1  0
 33 44  1  0
 34 35  2  0
 35 25  1  0
 36 37  1  0
 36 43  1  0
 37 38  2  0
 37 39  1  0
 40 41  1  0
 40 42  1  0
M  END
> <CMPD_CHEMBLID>
CHEMBL405059

> <STANDARD_TYPE>
IC50

> <RELATION>
=

> <STANDARD_VALUE>
25700

> <STANDARD_UNITS>
nM

> <Molecular_Weight>
612.69512

$$$$

  SciTegic11272012012D

 46 47  0  0  0  0            999 V2000
    4.1410   -3.2277    0.0000 C   0  0
    3.5705   -2.8959    0.0000 C   0  0
    3.5728   -2.2359    0.0000 C   0  0
    2.8541   -3.3059    0.0000 C   0  0
    2.1401   -2.8917    0.0000 N   0  0
    2.1413   -2.0663    0.0000 C   0  0
    2.7134   -1.7373    0.0000 O   0  0
    1.4273   -1.6521    0.0000 C   0  0
    1.4285   -0.8267    0.0000 C   0  0
    2.1436   -0.4145    0.0000 C   0  0
    2.1460    0.4105    0.0000 C   0  0
    2.8617    0.8209    0.0000 C   0  0
    3.5749    0.4064    0.0000 C   0  0
    4.2918    0.8156    0.0000 O   0  0
    5.0049    0.3998    0.0000 P   0  0
    5.0018   -0.2601    0.0000 O   0  0
    5.7217    0.8090    0.0000 O   0  0
    4.2748   -0.0186    0.0000 O   0  0
    3.5726   -0.4186    0.0000 C   0  0
    2.8569   -0.8291    0.0000 C   0  0
    0.7109   -2.0621    0.0000 N   0  0
   -0.0026   -1.6472    0.0000 C   0  0
   -0.5755   -1.9750    0.0000 O   0  0
   -0.0004   -0.9872    0.0000 C   0  0
    2.8530   -4.1314    0.0000 C   0  0
    2.2808   -4.4604    0.0000 O   0  0
    3.5670   -4.5456    0.0000 N   0  0
    3.5657   -5.3710    0.0000 C   0  0
    2.9936   -5.7000    0.0000 C   0  0
    4.2797   -5.7852    0.0000 C   0  0
    4.8519   -5.4562    0.0000 O   0  0
    4.2786   -6.6106    0.0000 N   0  0
    4.9926   -7.0248    0.0000 C   0  0
    4.9914   -7.8502    0.0000 C   0  0
    5.7054   -8.2644    0.0000 C   0  0
    5.7054   -9.0895    0.0000 C   0  0
    6.4199   -9.5020    0.0000 C   0  0
    7.1344   -9.0895    0.0000 C   0  0
    7.1344   -8.2645    0.0000 C   0  0
    6.4199   -7.8520    0.0000 C   0  0
    3.8018   -6.8848    0.0000 H   0  0
    4.0437   -4.2714    0.0000 H   0  0
    0.7089   -2.6121    0.0000 H   0  0
    4.2727   -0.5686    0.0000 H   0  0
    6.1968    0.5320    0.0000 H   0  0
    1.6633   -3.1659    0.0000 H   0  0
  1  2  1  0
  2  3  1  0
  2  4  1  0
  4  5  1  0
  4 25  1  0
  5  6  1  0
  5 46  1  0
  6  7  2  0
  6  8  1  0
  8  9  1  0
  8 21  1  0
  9 10  1  0
 10 11  2  0
 11 12  1  0
 12 13  2  0
 13 14  1  0
 13 19  1  0
 14 15  1  0
 15 16  2  0
 15 17  1  0
 15 18  1  0
 17 45  1  0
 18 44  1  0
 19 20  2  0
 20 10  1  0
 21 22  1  0
 21 43  1  0
 22 23  2  0
 22 24  1  0
 25 26  2  0
 25 27  1  0
 27 28  1  0
 27 42  1  0
 28 29  1  0
 28 30  1  0
 30 31  2  0
 30 32  1  0
 32 33  1  0
 32 41  1  0
 33 34  1  0
 34 35  1  0
 35 36  1  0
 36 37  1  0
 37 38  1  0
 38 39  1  0
 39 40  1  0
 40 35  1  0
M  END
> <CMPD_CHEMBLID>
CHEMBL136289

> <STANDARD_TYPE>
IC50

> <RELATION>
=

> <STANDARD_VALUE>
26000

> <STANDARD_UNITS>
nM

> <Molecular_Weight>
582.62608

$$$$

  SciTegic11272012012D

 40 44  0  0  0  0            999 V2000
    0.2263   -4.5662    0.0000 C   0  0
   -0.4193   -4.4288    0.0000 C   0  0
   -0.9714   -5.0419    0.0000 C   0  0
   -1.7784   -4.8702    0.0000 C   0  0
   -2.0332   -4.0855    0.0000 C   0  0
   -2.8402   -3.9121    0.0000 N   0  0
   -3.0941   -3.1267    0.0000 C   0  0
   -2.6515   -2.6371    0.0000 O   0  0
   -3.9011   -2.9533    0.0000 C   0  0
   -4.1559   -2.1686    0.0000 C   0  0
   -4.9628   -1.9969    0.0000 C   0  0
   -5.5150   -2.6100    0.0000 C   0  0
   -5.2602   -3.3946    0.0000 C   0  0
   -4.4533   -3.5663    0.0000 C   0  0
   -5.8126   -4.0079    0.0000 C   0  0
   -6.4583   -3.8710    0.0000 F   0  0
   -5.6086   -4.6356    0.0000 F   0  0
   -6.2541   -4.4985    0.0000 F   0  0
   -1.4810   -3.4726    0.0000 C   0  0
   -0.6741   -3.6442    0.0000 C   0  0
   -0.1229   -3.0297    0.0000 C   0  0
   -0.3789   -2.2450    0.0000 C   0  0
    0.1713   -1.6316    0.0000 N   0  0
    0.9918   -1.7178    0.0000 C   0  0
    1.3273   -0.9641    0.0000 N   0  0
    0.7144   -0.4125    0.0000 C   0  0
    0.7144    0.4125    0.0000 C   0  0
    1.4285    0.8267    0.0000 N   0  0
    1.4273    1.6521    0.0000 C   0  0
    2.1403    2.0672    0.0000 C   0  0
    2.1375    2.8922    0.0000 C   0  0
    1.4216    3.3022    0.0000 C   0  0
    0.7086    2.8872    0.0000 N   0  0
    0.7114    2.0622    0.0000 C   0  0
    0.0000    0.8250    0.0000 N   0  0
   -0.7144    0.4125    0.0000 C   0  0
   -0.7144   -0.4125    0.0000 N   0  0
    0.0000   -0.8250    0.0000 C   0  0
    1.9052    0.5525    0.0000 H   0  0
   -3.2090   -4.3202    0.0000 H   0  0
  1  2  1  0
  2  3  2  0
  3  4  1  0
  4  5  2  0
  5  6  1  0
  5 19  1  0
  6  7  1  0
  6 40  1  0
  7  8  2  0
  7  9  1  0
  9 10  2  0
 10 11  1  0
 11 12  2  0
 12 13  1  0
 13 14  2  0
 13 15  1  0
 14  9  1  0
 15 16  1  0
 15 17  1  0
 15 18  1  0
 19 20  2  0
 20  2  1  0
 20 21  1  0
 21 22  2  0
 22 23  1  0
 23 24  1  0
 24 25  2  0
 25 26  1  0
 26 27  2  0
 27 28  1  0
 27 35  1  0
 28 29  1  0
 28 39  1  0
 29 30  2  0
 30 31  1  0
 31 32  2  0
 32 33  1  0
 33 34  2  0
 34 29  1  0
 35 36  2  0
 36 37  1  0
 37 38  2  0
 38 23  1  0
 38 26  1  0
M  END
> <CMPD_CHEMBLID>
CHEMBL551031

> <STANDARD_TYPE>
IC50

> <RELATION>
=

> <STANDARD_VALUE>
26000

> <STANDARD_UNITS>
nM

> <Molecular_Weight>
515.48921

$$$$

  SciTegic11272012012D

 36 39  0  0  0  0            999 V2000
    3.0598    4.1697    0.0000 O   0  0
    2.7251    3.4152    0.0000 N   0  0
    3.2108    2.7477    0.0000 C   0  0
    3.8672    2.8175    0.0000 O   0  0
    2.8762    1.9931    0.0000 C   0  0
    3.3619    1.3257    0.0000 C   0  0
    3.0279    0.5724    0.0000 C   0  0
    3.4399   -0.1423    0.0000 C   0  0
    2.8874   -0.7550    0.0000 C   0  0
    2.1444   -0.4129    0.0000 N   0  0
    2.2207    0.4014    0.0000 C   0  0
    1.4293   -0.8252    0.0000 S   0  0
    1.4291   -1.4852    0.0000 O   0  0
    2.0007   -1.1555    0.0000 O   0  0
    0.7144   -0.4125    0.0000 C   0  0
    0.7144    0.4125    0.0000 C   0  0
    0.0000    0.8250    0.0000 C   0  0
   -0.7144    0.4125    0.0000 C   0  0
   -1.4290    0.8250    0.0000 N   0  0
   -2.1434    0.4125    0.0000 C   0  0
   -2.1434   -0.4125    0.0000 N   0  0
   -1.4290   -0.8250    0.0000 C   0  0
   -1.4306   -1.6504    0.0000 N   0  0
   -2.1461   -2.0622    0.0000 C   0  0
   -2.1490   -2.8872    0.0000 C   0  0
   -2.8649   -3.2972    0.0000 C   0  0
   -3.5779   -2.8823    0.0000 C   0  0
   -3.5751   -2.0573    0.0000 C   0  0
   -2.8592   -1.6472    0.0000 C   0  0
   -4.2885   -1.6421    0.0000 C   0  0
   -4.8589   -1.3101    0.0000 C   0  0
   -0.7144   -0.4125    0.0000 C   0  0
    0.0000   -0.8250    0.0000 C   0  0
   -0.9548   -1.9263    0.0000 H   0  0
    2.1782    3.3570    0.0000 H   0  0
    2.7361    4.6144    0.0000 H   0  0
  1  2  1  0
  1 36  1  0
  2  3  1  0
  2 35  1  0
  3  4  2  0
  3  5  1  0
  5  6  2  0
  6  7  1  0
  7  8  1  0
  8  9  2  0
  9 10  1  0
 10 11  1  0
 10 12  1  0
 11  7  2  0
 12 13  2  0
 12 14  2  0
 12 15  1  0
 15 16  2  0
 16 17  1  0
 17 18  2  0
 18 19  1  0
 19 20  2  0
 20 21  1  0
 21 22  2  0
 22 23  1  0
 22 32  1  0
 23 24  1  0
 23 34  1  0
 24 25  2  0
 25 26  1  0
 26 27  2  0
 27 28  1  0
 28 29  2  0
 28 30  1  0
 29 24  1  0
 30 31  3  0
 32 18  1  0
 32 33  2  0
 33 15  1  0
M  END
> <CMPD_CHEMBLID>
CHEMBL3218002

> <STANDARD_TYPE>
IC50

> <RELATION>
=

> <STANDARD_VALUE>
27000

> <STANDARD_UNITS>
nM

> <Molecular_Weight>
459.47718

$$$$

  SciTegic11272012012D

 37 38  0  0  0  0            999 V2000
    3.5747    0.4179    0.0000 N   0  0
    3.5744   -0.4075    0.0000 C   0  0
    4.2901   -0.8188    0.0000 C   0  0
    5.0044   -0.4050    0.0000 C   0  0
    5.0033    0.2550    0.0000 O   0  0
    5.7201   -0.8163    0.0000 N   0  0
    2.8601   -0.8213    0.0000 C   0  0
    2.8613   -1.4813    0.0000 O   0  0
    2.1444   -0.4100    0.0000 N   0  0
    1.4302   -0.8237    0.0000 C   0  0
    0.7144   -0.4125    0.0000 C   0  0
    0.7144    0.4125    0.0000 C   0  0
    0.0000    0.8250    0.0000 C   0  0
    0.0017    1.6504    0.0000 C   0  0
   -0.5693    1.9814    0.0000 O   0  0
    0.7171    2.0622    0.0000 O   0  0
   -0.7144    0.4125    0.0000 C   0  0
   -1.4302    0.8237    0.0000 N   0  0
   -2.1444    0.4100    0.0000 C   0  0
   -2.1416   -0.4150    0.0000 C   0  0
   -2.8546   -0.8300    0.0000 C   0  0
   -3.5706   -0.4200    0.0000 C   0  0
   -4.1410   -0.7520    0.0000 I   0  0
   -3.5734    0.4050    0.0000 C   0  0
   -2.8604    0.8200    0.0000 C   0  0
   -2.8627    1.4800    0.0000 F   0  0
   -0.7144   -0.4125    0.0000 C   0  0
   -1.2861   -0.7425    0.0000 F   0  0
    0.0000   -0.8250    0.0000 C   0  0
    0.0000   -1.4850    0.0000 F   0  0
   -1.4311    1.3737    0.0000 H   0  0
    0.7182    2.6122    0.0000 H   0  0
    2.1435    0.1400    0.0000 H   0  0
    6.1960   -0.5406    0.0000 H   0  0
    5.7211   -1.3662    0.0000 H   0  0
    4.0509    0.6931    0.0000 H   0  0
    3.0984    0.6929    0.0000 H   0  0
  1  2  1  0
  1 36  1  0
  1 37  1  0
  2  3  1  0
  2  7  1  0
  3  4  1  0
  4  5  2  0
  4  6  1  0
  6 34  1  0
  6 35  1  0
  7  8  2  0
  7  9  1  0
  9 10  1  0
  9 33  1  0
 10 11  1  0
 11 12  2  0
 12 13  1  0
 13 14  1  0
 13 17  2  0
 14 15  2  0
 14 16  1  0
 16 32  1  0
 17 18  1  0
 17 27  1  0
 18 19  1  0
 18 31  1  0
 19 20  2  0
 20 21  1  0
 21 22  2  0
 22 23  1  0
 22 24  1  0
 24 25  2  0
 25 19  1  0
 25 26  1  0
 27 28  1  0
 27 29  2  0
 29 11  1  0
 29 30  1  0
M  END
> <CMPD_CHEMBLID>
CHEMBL517647

> <STANDARD_TYPE>
IC50

> <RELATION>
>

> <STANDARD_VALUE>
30000

> <STANDARD_UNITS>
nM

> <Molecular_Weight>
536.24372

$$$$

  SciTegic11272012012D

 38 40  0  0  0  0            999 V2000
    3.5471    0.5145    0.0000 C   0  0
    3.0989    0.0300    0.0000 N   0  0
    3.2945   -0.6003    0.0000 C   0  0
    2.2937    0.2121    0.0000 C   0  0
    1.7331   -0.3939    0.0000 C   0  0
    0.9269   -0.2115    0.0000 N   0  0
    0.7433    0.5928    0.0000 C   0  0
    0.0000    0.9508    0.0000 C   0  0
   -0.7433    0.5928    0.0000 N   0  0
   -0.9269   -0.2116    0.0000 C   0  0
   -0.4125   -0.8566    0.0000 C   0  0
    0.4125   -0.8566    0.0000 C   0  0
    0.6989   -1.4513    0.0000 O   0  0
   -1.3906    1.1068    0.0000 C   0  0
   -1.2934    1.7596    0.0000 O   0  0
   -2.1586    0.8041    0.0000 C   0  0
   -2.3522    0.0094    0.0000 C   0  0
   -3.1756   -0.0428    0.0000 C   0  0
   -3.4797    0.7241    0.0000 S   0  0
   -2.8442    1.2503    0.0000 C   0  0
   -2.8918    2.0730    0.0000 N   0  0
   -3.6290    2.4443    0.0000 C   0  0
   -4.1807    2.0820    0.0000 O   0  0
   -3.6766    3.2684    0.0000 N   0  0
   -4.4138    3.6397    0.0000 C   0  0
   -5.1028    3.1857    0.0000 C   0  0
   -5.8403    3.5554    0.0000 C   0  0
   -5.8891    4.3789    0.0000 C   0  0
   -5.2002    4.8329    0.0000 C   0  0
   -5.2391    5.4918    0.0000 Cl  0  0
   -4.4625    4.4633    0.0000 C   0  0
   -3.9114    4.8265    0.0000 Cl  0  0
   -3.6168   -0.7388    0.0000 C   0  0
   -3.3111   -1.3238    0.0000 C   0  0
   -4.2763   -0.7113    0.0000 C   0  0
   -3.9704   -1.2961    0.0000 C   0  0
   -3.2168    3.5702    0.0000 H   0  0
   -2.4319    2.3748    0.0000 H   0  0
  1  2  1  0
  2  3  1  0
  2  4  1  0
  4  5  1  0
  5  6  1  0
  6  7  1  0
  7  8  1  0
  8  9  1  0
  9 10  1  0
  9 14  1  0
 10 11  1  0
 11 12  1  0
 12  6  1  0
 12 13  2  0
 14 15  2  0
 14 16  1  0
 16 17  1  0
 17 18  2  0
 18 19  1  0
 18 33  1  0
 19 20  1  0
 20 16  2  0
 20 21  1  0
 21 22  1  0
 21 38  1  0
 22 23  2  0
 22 24  1  0
 24 25  1  0
 24 37  1  0
 25 26  2  0
 26 27  1  0
 27 28  2  0
 28 29  1  0
 29 30  1  0
 29 31  2  0
 31 25  1  0
 31 32  1  0
 33 34  1  0
 33 35  1  0
 33 36  1  0
M  END
> <CMPD_CHEMBLID>
CHEMBL1929238

> <STANDARD_TYPE>
IC50

> <RELATION>
>

> <STANDARD_VALUE>
30000

> <STANDARD_UNITS>
nM

> <Molecular_Weight>
554.53222

$$$$

  SciTegic11272012012D

 33 38  0  0  0  0            999 V2000
    1.5994   -5.8929    0.0000 F   0  0
    1.1075   -5.4528    0.0000 C   0  0
    0.3237   -5.7104    0.0000 C   0  0
   -0.2912   -5.1604    0.0000 C   0  0
   -0.1224   -4.3528    0.0000 C   0  0
   -0.6094   -3.6874    0.0000 N   0  0
   -0.1229   -3.0298    0.0000 C   0  0
    0.6589   -3.2707    0.0000 C   0  0
    0.6614   -4.0953    0.0000 C   0  0
    1.2764   -4.6453    0.0000 C   0  0
   -0.3790   -2.2450    0.0000 C   0  0
   -1.0247   -2.1088    0.0000 O   0  0
    0.1713   -1.6316    0.0000 N   0  0
    0.9918   -1.7178    0.0000 C   0  0
    1.3273   -0.9642    0.0000 C   0  0
    2.0416   -0.5090    0.0000 C   0  0
    2.6961   -1.0111    0.0000 C   0  0
    2.4208   -1.7889    0.0000 N   0  0
    1.5961   -1.7673    0.0000 C   0  0
    2.8884   -2.4691    0.0000 C   0  0
    3.7106   -2.4659    0.0000 C   0  0
    4.1255   -3.1790    0.0000 C   0  0
    3.7154   -3.8948    0.0000 C   0  0
    2.8904   -3.8976    0.0000 N   0  0
    2.4755   -3.1844    0.0000 C   0  0
    0.7145   -0.4125    0.0000 C   0  0
    0.7145    0.4125    0.0000 C   0  0
    0.0000    0.8250    0.0000 C   0  0
   -0.7145    0.4125    0.0000 C   0  0
   -0.7145   -0.4125    0.0000 C   0  0
    0.0000   -0.8250    0.0000 C   0  0
    2.6169   -4.3748    0.0000 H   0  0
   -1.1594   -3.6860    0.0000 H   0  0
  1  2  1  0
  2  3  2  0
  3  4  1  0
  4  5  2  0
  5  6  1  0
  6  7  1  0
  6 33  1  0
  7  8  2  0
  7 11  1  0
  8  9  1  0
  9  5  1  0
  9 10  2  0
 10  2  1  0
 11 12  2  0
 11 13  1  0
 13 14  1  0
 14 15  1  0
 15 16  1  0
 15 26  1  0
 16 17  1  0
 17 18  1  0
 18 19  1  0
 18 20  1  0
 19 15  1  0
 20 21  1  0
 21 22  1  0
 22 23  1  0
 23 24  1  0
 24 25  1  0
 24 32  1  0
 25 20  1  0
 26 27  2  0
 27 28  1  0
 28 29  2  0
 29 30  1  0
 30 31  2  0
 31 13  1  0
 31 26  1  0
M  END
> <CMPD_CHEMBLID>
CHEMBL1933538

> <STANDARD_TYPE>
IC50

> <RELATION>
>

> <STANDARD_VALUE>
30000

> <STANDARD_UNITS>
nM

> <Molecular_Weight>
418.50648

$$$$

  SciTegic11272012012D

 32 37  0  0  0  0            999 V2000
    0.1886   -6.3564    0.0000 F   0  0
    0.3237   -5.7104    0.0000 C   0  0
    1.1074   -5.4529    0.0000 C   0  0
    1.2764   -4.6453    0.0000 C   0  0
    0.6614   -4.0953    0.0000 C   0  0
    0.6589   -3.2707    0.0000 C   0  0
   -0.1229   -3.0298    0.0000 C   0  0
   -0.6094   -3.6874    0.0000 N   0  0
   -0.1224   -4.3528    0.0000 C   0  0
   -0.2912   -5.1604    0.0000 C   0  0
   -0.3790   -2.2450    0.0000 C   0  0
   -1.0247   -2.1088    0.0000 O   0  0
    0.1713   -1.6316    0.0000 N   0  0
    0.9918   -1.7179    0.0000 C   0  0
    1.3273   -0.9642    0.0000 C   0  0
    2.0416   -0.5090    0.0000 C   0  0
    2.6962   -1.0111    0.0000 C   0  0
    2.4208   -1.7889    0.0000 N   0  0
    1.5961   -1.7674    0.0000 C   0  0
    2.8884   -2.4691    0.0000 C   0  0
    3.7003   -2.5440    0.0000 C   0  0
    3.8721   -3.3510    0.0000 C   0  0
    3.1577   -3.7637    0.0000 N   0  0
    2.5445   -3.2118    0.0000 C   0  0
    0.7145   -0.4125    0.0000 C   0  0
    0.7145    0.4125    0.0000 C   0  0
    0.0000    0.8250    0.0000 C   0  0
   -0.7145    0.4125    0.0000 C   0  0
   -0.7145   -0.4125    0.0000 C   0  0
    0.0000   -0.8250    0.0000 C   0  0
    3.1004   -4.3107    0.0000 H   0  0
   -1.1594   -3.6860    0.0000 H   0  0
  1  2  1  0
  2  3  2  0
  3  4  1  0
  4  5  2  0
  5  6  1  0
  6  7  2  0
  7  8  1  0
  7 11  1  0
  8  9  1  0
  8 32  1  0
  9  5  1  0
  9 10  2  0
 10  2  1  0
 11 12  2  0
 11 13  1  0
 13 14  1  0
 14 15  1  0
 15 16  1  0
 15 25  1  0
 16 17  1  0
 17 18  1  0
 18 19  1  0
 18 20  1  0
 19 15  1  0
 20 21  1  0
 21 22  1  0
 22 23  1  0
 23 24  1  0
 23 31  1  0
 24 20  1  0
 25 26  2  0
 26 27  1  0
 27 28  2  0
 28 29  1  0
 29 30  2  0
 30 13  1  0
 30 25  1  0
M  END
> <CMPD_CHEMBLID>
CHEMBL1933550

> <STANDARD_TYPE>
IC50

> <RELATION>
>

> <STANDARD_VALUE>
30000

> <STANDARD_UNITS>
nM

> <Molecular_Weight>
404.4799

$$$$

  SciTegic11272012012D

 34 39  0  0  0  0            999 V2000
    1.8435   -5.7376    0.0000 C   0  0
    1.5154   -5.1650    0.0000 C   0  0
    0.6904   -5.1623    0.0000 C   0  0
    0.2802   -4.4464    0.0000 C   0  0
    0.6941   -3.7359    0.0000 C   0  0
    1.5201   -3.7360    0.0000 C   0  0
    1.9303   -4.4519    0.0000 N   0  0
    0.3388   -2.9909    0.0000 N   0  0
   -0.4723   -2.8405    0.0000 C   0  0
   -0.5800   -2.0225    0.0000 C   0  0
    0.1713   -1.6316    0.0000 C   0  0
    0.7325   -2.2659    0.0000 C   0  0
    0.9918   -1.7178    0.0000 C   0  0
    1.3273   -0.9642    0.0000 N   0  0
    2.1337   -0.7943    0.0000 C   0  0
    2.3386   -0.1669    0.0000 O   0  0
    2.6853   -1.4085    0.0000 C   0  0
    2.5031   -2.2059    0.0000 C   0  0
    3.2159   -2.6204    0.0000 C   0  0
    3.3848   -3.4280    0.0000 C   0  0
    4.1686   -3.6855    0.0000 C   0  0
    4.7835   -3.1355    0.0000 C   0  0
    5.4106   -3.3415    0.0000 F   0  0
    4.6146   -2.3279    0.0000 C   0  0
    3.8308   -2.0704    0.0000 C   0  0
    3.4981   -1.3160    0.0000 N   0  0
    0.7145   -0.4125    0.0000 C   0  0
    0.7145    0.4125    0.0000 C   0  0
    0.0000    0.8250    0.0000 C   0  0
   -0.7145    0.4125    0.0000 C   0  0
   -0.7145   -0.4125    0.0000 C   0  0
    0.0000   -0.8250    0.0000 C   0  0
    3.7719   -0.8389    0.0000 H   0  0
    2.4803   -4.4537    0.0000 H   0  0
  1  2  1  0
  2  3  1  0
  3  4  1  0
  4  5  1  0
  5  6  1  0
  5  8  1  0
  6  7  1  0
  7  2  1  0
  7 34  1  0
  8  9  1  0
  9 10  1  0
 10 11  1  0
 11 12  1  0
 11 13  1  0
 12  8  1  0
 13 14  1  0
 14 15  1  0
 14 27  1  0
 15 16  2  0
 15 17  1  0
 17 18  2  0
 18 19  1  0
 19 20  2  0
 20 21  1  0
 21 22  2  0
 22 23  1  0
 22 24  1  0
 24 25  2  0
 25 19  1  0
 25 26  1  0
 26 17  1  0
 26 33  1  0
 27 28  2  0
 28 29  1  0
 29 30  2  0
 30 31  1  0
 31 32  2  0
 32 11  1  0
 32 27  1  0
M  END
> <CMPD_CHEMBLID>
CHEMBL1933552

> <STANDARD_TYPE>
IC50

> <RELATION>
>

> <STANDARD_VALUE>
30000

> <STANDARD_UNITS>
nM

> <Molecular_Weight>
432.53306

$$$$

  SciTegic11272012012D

 36 39  0  0  0  0            999 V2000
    2.0006   -0.4977    0.0000 C   0  0
    1.4285   -0.8267    0.0000 C   0  0
    1.4276   -1.4867    0.0000 O   0  0
    0.7144   -0.4125    0.0000 C   0  0
    0.7144    0.4125    0.0000 C   0  0
    0.0000    0.8250    0.0000 C   0  0
   -0.7144    0.4125    0.0000 C   0  0
   -0.7144   -0.4125    0.0000 C   0  0
    0.0000   -0.8250    0.0000 C   0  0
   -1.4293    0.8252    0.0000 N   0  0
   -1.4307    1.6502    0.0000 C   0  0
   -2.1458    2.0616    0.0000 C   0  0
   -2.8596    1.6480    0.0000 N   0  0
   -2.8583    0.8230    0.0000 C   0  0
   -2.1432    0.4116    0.0000 C   0  0
   -3.5760    2.0581    0.0000 C   0  0
   -3.5782    2.7181    0.0000 O   0  0
   -4.2896    1.6432    0.0000 C   0  0
   -5.0059    2.0533    0.0000 N   0  0
   -5.7487    1.7106    0.0000 C   0  0
   -6.3017    2.3228    0.0000 C   0  0
   -5.8903    3.0379    0.0000 C   0  0
   -5.0831    2.8676    0.0000 C   0  0
   -6.2251    3.7909    0.0000 C   0  0
   -6.8815    3.8600    0.0000 O   0  0
   -5.7401    4.4587    0.0000 N   0  0
   -6.0754    5.2130    0.0000 C   0  0
   -5.5916    5.8812    0.0000 C   0  0
   -5.9283    6.6344    0.0000 C   0  0
   -6.7489    6.7193    0.0000 C   0  0
   -7.0843    7.4736    0.0000 O   0  0
   -7.2328    6.0512    0.0000 C   0  0
   -7.8893    6.1191    0.0000 Cl  0  0
   -6.8961    5.2980    0.0000 C   0  0
   -6.7611    7.9186    0.0000 H   0  0
   -5.1931    4.4012    0.0000 H   0  0
  1  2  1  0
  2  3  2  0
  2  4  1  0
  4  5  2  0
  5  6  1  0
  6  7  2  0
  7  8  1  0
  7 10  1  0
  8  9  2  0
  9  4  1  0
 10 11  1  0
 11 12  1  0
 12 13  1  0
 13 14  1  0
 13 16  1  0
 14 15  1  0
 15 10  1  0
 16 17  2  0
 16 18  1  0
 18 19  1  0
 19 20  1  0
 20 21  1  0
 21 22  1  0
 22 23  1  0
 22 24  1  0
 23 19  1  0
 24 25  2  0
 24 26  1  0
 26 27  1  0
 26 36  1  0
 27 28  2  0
 28 29  1  0
 29 30  2  0
 30 31  1  0
 30 32  1  0
 31 35  1  0
 32 33  1  0
 32 34  2  0
 34 27  1  0
M  END
> <CMPD_CHEMBLID>
CHEMBL3356117

> <STANDARD_TYPE>
IC50

> <RELATION>
>

> <STANDARD_VALUE>
30000

> <STANDARD_UNITS>
nM

> <Molecular_Weight>
484.97516

$$$$

  SciTegic11272012012D

 36 39  0  0  0  0            999 V2000
    1.2861   -0.7425    0.0000 C   0  0
    0.7144   -0.4125    0.0000 N   0  0
    0.7144    0.4125    0.0000 C   0  0
    0.0000    0.8250    0.0000 C   0  0
   -0.7144    0.4125    0.0000 C   0  0
   -0.7144   -0.4125    0.0000 C   0  0
    0.0000   -0.8250    0.0000 C   0  0
   -1.4302    0.8237    0.0000 N   0  0
   -2.1444    0.4100    0.0000 C   0  0
   -2.1433   -0.2500    0.0000 O   0  0
   -2.8602    0.8213    0.0000 C   0  0
   -2.8602    1.6463    0.0000 C   0  0
   -3.5747    2.0588    0.0000 N   0  0
   -4.2892    1.6463    0.0000 C   0  0
   -5.0049    2.0575    0.0000 N   0  0
   -5.7192    1.6437    0.0000 C   0  0
   -6.4351    2.0537    0.0000 C   0  0
   -7.1481    1.6387    0.0000 C   0  0
   -7.7209    1.9667    0.0000 Cl  0  0
   -7.1453    0.8137    0.0000 C   0  0
   -6.4293    0.4037    0.0000 C   0  0
   -6.4271   -0.2563    0.0000 Cl  0  0
   -5.7163    0.8187    0.0000 C   0  0
   -4.2892    0.8213    0.0000 N   0  0
   -3.5747    0.4088    0.0000 C   0  0
   -3.5764   -0.4167    0.0000 N   0  0
   -4.2918   -0.8284    0.0000 C   0  0
   -5.0339   -0.4842    0.0000 C   0  0
   -5.5881   -1.0954    0.0000 O   0  0
   -5.1781   -1.8113    0.0000 C   0  0
   -4.3705   -1.6426    0.0000 C   0  0
   -3.7570   -2.1926    0.0000 O   0  0
   -3.8698   -2.7310    0.0000 H   0  0
   -3.1006   -0.6925    0.0000 H   0  0
   -5.0059    2.6075    0.0000 H   0  0
   -1.4312    1.3737    0.0000 H   0  0
  1  2  1  0
  2  3  1  0
  3  4  1  0
  4  5  1  0
  5  6  1  0
  5  8  1  0
  6  7  1  0
  7  2  1  0
  8  9  1  0
  8 36  1  0
  9 10  2  0
  9 11  1  0
 11 12  2  0
 12 13  1  0
 13 14  2  0
 14 15  1  0
 14 24  1  0
 15 16  1  0
 15 35  1  0
 16 17  2  0
 17 18  1  0
 18 19  1  0
 18 20  2  0
 20 21  1  0
 21 22  1  0
 21 23  2  0
 23 16  1  0
 24 25  2  0
 25 11  1  0
 25 26  1  0
 26 27  1  0
 26 34  1  0
 27 28  1  0
 28 29  1  0
 29 30  1  0
 30 31  1  0
 31 27  1  0
 31 32  1  0
 32 33  1  0
M  END
> <CMPD_CHEMBLID>
CHEMBL2312652

> <STANDARD_TYPE>
IC50

> <RELATION>
=

> <STANDARD_VALUE>
30000

> <STANDARD_UNITS>
nM

> <Molecular_Weight>
481.37554

$$$$

  SciTegic11272012012D

 37 40  0  0  0  0            999 V2000
    2.0013   -0.4930    0.0000 C   0  0
    1.4302   -0.8237    0.0000 O   0  0
    0.7144   -0.4125    0.0000 C   0  0
    0.7144    0.4125    0.0000 C   0  0
    0.0000    0.8250    0.0000 C   0  0
   -0.7144    0.4125    0.0000 C   0  0
   -0.7144   -0.4125    0.0000 C   0  0
    0.0000   -0.8250    0.0000 C   0  0
   -0.0017   -1.6504    0.0000 C   0  0
   -0.7171   -2.0622    0.0000 N   0  0
   -0.7188   -2.8876    0.0000 C   0  0
   -1.4333   -3.3002    0.0000 N   0  0
   -1.4333   -4.1252    0.0000 C   0  0
   -0.7188   -4.5377    0.0000 C   0  0
   -0.7206   -5.3631    0.0000 C   0  0
   -0.1496   -5.6941    0.0000 O   0  0
   -1.4361   -5.7748    0.0000 N   0  0
   -1.4378   -6.6003    0.0000 C   0  0
   -2.1532   -7.0119    0.0000 C   0  0
   -2.1549   -7.8374    0.0000 C   0  0
   -2.8704   -8.2491    0.0000 N   0  0
   -3.6125   -7.9049    0.0000 C   0  0
   -4.1666   -8.5161    0.0000 C   0  0
   -3.7566   -9.2320    0.0000 C   0  0
   -2.9490   -9.0633    0.0000 C   0  0
   -2.4575   -9.5037    0.0000 O   0  0
   -0.0044   -4.1252    0.0000 C   0  0
    0.7113   -4.5365    0.0000 N   0  0
    1.4256   -4.1227    0.0000 C   0  0
    2.1700   -4.4617    0.0000 C   0  0
    2.7200   -3.8467    0.0000 C   0  0
    2.3050   -3.1337    0.0000 C   0  0
    1.4986   -3.3080    0.0000 C   0  0
   -0.0043   -3.3002    0.0000 N   0  0
    0.7122   -5.0865    0.0000 H   0  0
   -1.9119   -5.4990    0.0000 H   0  0
   -1.1930   -1.7863    0.0000 H   0  0
  1  2  1  0
  2  3  1  0
  3  4  2  0
  4  5  1  0
  5  6  2  0
  6  7  1  0
  7  8  2  0
  8  3  1  0
  8  9  1  0
  9 10  1  0
 10 11  1  0
 10 37  1  0
 11 12  2  0
 12 13  1  0
 13 14  2  0
 14 15  1  0
 14 27  1  0
 15 16  2  0
 15 17  1  0
 17 18  1  0
 17 36  1  0
 18 19  1  0
 19 20  1  0
 20 21  1  0
 21 22  1  0
 22 23  1  0
 23 24  1  0
 24 25  1  0
 25 21  1  0
 25 26  2  0
 27 28  1  0
 27 34  2  0
 28 29  1  0
 28 35  1  0
 29 30  1  0
 30 31  1  0
 31 32  1  0
 32 33  1  0
 33 29  1  0
 34 11  1  0
M  END
> <CMPD_CHEMBLID>
CHEMBL2312301

> <STANDARD_TYPE>
IC50

> <RELATION>
>

> <STANDARD_VALUE>
30000

> <STANDARD_UNITS>
nM

> <Molecular_Weight>
466.57586

$$$$

  SciTegic11272012012D

 34 38  0  0  0  0            999 V2000
    1.4276   -1.4867    0.0000 C   0  0
    1.4285   -0.8267    0.0000 O   0  0
    0.7145   -0.4125    0.0000 C   0  0
    0.7145    0.4125    0.0000 C   0  0
    0.0000    0.8250    0.0000 C   0  0
   -0.7145    0.4125    0.0000 C   0  0
   -1.4290    0.8250    0.0000 C   0  0
   -2.1434    0.4125    0.0000 C   0  0
   -2.1434   -0.4125    0.0000 C   0  0
   -1.4290   -0.8250    0.0000 C   0  0
   -0.7145   -0.4125    0.0000 C   0  0
    0.0000   -0.8250    0.0000 C   0  0
   -2.8583    0.8252    0.0000 C   0  0
   -2.9355    1.6396    0.0000 C   0  0
   -3.7427    1.8098    0.0000 N   0  0
   -4.1541    1.0947    0.0000 C   0  0
   -4.9748    1.0071    0.0000 C   0  0
   -5.2494    0.2281    0.0000 C   0  0
   -6.0608    0.0790    0.0000 C   0  0
   -6.5956    0.7073    0.0000 C   0  0
   -6.3189    1.4845    0.0000 C   0  0
   -5.5075    1.6335    0.0000 C   0  0
   -5.2859    2.2553    0.0000 C   0  0
   -7.4078    0.5599    0.0000 S   0  0
   -7.6302   -0.0615    0.0000 C   0  0
   -7.8349    1.0631    0.0000 O   0  0
   -3.6010    0.4825    0.0000 N   0  0
   -3.7334   -0.1641    0.0000 C   0  0
   -2.3196    2.1892    0.0000 C   0  0
   -1.5210    1.9941    0.0000 C   0  0
   -0.9511    2.5906    0.0000 C   0  0
   -1.1827    3.3825    0.0000 N   0  0
   -1.9843    3.5778    0.0000 C   0  0
   -2.5542    2.9813    0.0000 C   0  0
  1  2  1  0
  2  3  1  0
  3  4  2  0
  4  5  1  0
  5  6  2  0
  6  7  1  0
  7  8  2  0
  8  9  1  0
  8 13  1  0
  9 10  2  0
 10 11  1  0
 11  6  1  0
 11 12  2  0
 12  3  1  0
 13 14  2  0
 14 15  1  0
 14 29  1  0
 15 16  2  0
 16 17  1  0
 16 27  1  0
 17 18  2  0
 18 19  1  0
 19 20  2  0
 20 21  1  0
 20 24  1  0
 21 22  2  0
 22 17  1  0
 22 23  1  0
 24 25  1  0
 24 26  2  0
 27 13  1  0
 27 28  1  0
 29 30  2  0
 30 31  1  0
 31 32  2  0
 32 33  1  0
 33 34  2  0
 34 29  1  0
M  END
> <CMPD_CHEMBLID>
CHEMBL237570

> <STANDARD_TYPE>
IC50

> <RELATION>
>

> <STANDARD_VALUE>
30000

> <STANDARD_UNITS>
nM

> <Molecular_Weight>
467.582

$$$$

  SciTegic11272012012D

 33 38  0  0  0  0            999 V2000
    1.8435   -5.7376    0.0000 C   0  0
    1.5154   -5.1650    0.0000 C   0  0
    0.6904   -5.1623    0.0000 C   0  0
    0.2802   -4.4464    0.0000 C   0  0
    0.6941   -3.7359    0.0000 C   0  0
    1.5201   -3.7360    0.0000 C   0  0
    1.9303   -4.4519    0.0000 N   0  0
    0.3388   -2.9909    0.0000 N   0  0
   -0.4723   -2.8405    0.0000 C   0  0
   -0.5800   -2.0225    0.0000 C   0  0
    0.1713   -1.6316    0.0000 C   0  0
    0.7325   -2.2659    0.0000 C   0  0
    0.9918   -1.7178    0.0000 C   0  0
    1.3273   -0.9642    0.0000 N   0  0
    2.1337   -0.7943    0.0000 C   0  0
    2.3386   -0.1669    0.0000 O   0  0
    2.6853   -1.4085    0.0000 C   0  0
    2.5031   -2.2059    0.0000 C   0  0
    3.2159   -2.6204    0.0000 C   0  0
    3.3848   -3.4280    0.0000 C   0  0
    4.1686   -3.6855    0.0000 C   0  0
    4.7835   -3.1355    0.0000 C   0  0
    4.6146   -2.3279    0.0000 C   0  0
    3.8308   -2.0704    0.0000 C   0  0
    3.4981   -1.3160    0.0000 N   0  0
    0.7145   -0.4125    0.0000 C   0  0
    0.7145    0.4125    0.0000 C   0  0
    0.0000    0.8250    0.0000 C   0  0
   -0.7145    0.4125    0.0000 C   0  0
   -0.7145   -0.4125    0.0000 C   0  0
    0.0000   -0.8250    0.0000 C   0  0
    3.7719   -0.8389    0.0000 H   0  0
    2.4803   -4.4537    0.0000 H   0  0
  1  2  1  0
  2  3  1  0
  3  4  1  0
  4  5  1  0
  5  6  1  0
  5  8  1  0
  6  7  1  0
  7  2  1  0
  7 33  1  0
  8  9  1  0
  9 10  1  0
 10 11  1  0
 11 12  1  0
 11 13  1  0
 12  8  1  0
 13 14  1  0
 14 15  1  0
 14 26  1  0
 15 16  2  0
 15 17  1  0
 17 18  2  0
 18 19  1  0
 19 20  2  0
 20 21  1  0
 21 22  2  0
 22 23  1  0
 23 24  2  0
 24 19  1  0
 24 25  1  0
 25 17  1  0
 25 32  1  0
 26 27  2  0
 27 28  1  0
 28 29  2  0
 29 30  1  0
 30 31  2  0
 31 11  1  0
 31 26  1  0
M  END
> <CMPD_CHEMBLID>
CHEMBL1933551

> <STANDARD_TYPE>
IC50

> <RELATION>
>

> <STANDARD_VALUE>
30000

> <STANDARD_UNITS>
nM

> <Molecular_Weight>
414.5426

$$$$

  SciTegic11272012012D

 36 38  0  0  0  0            999 V2000
    1.4291   -1.4852    0.0000 C   0  0
    1.4293   -0.8252    0.0000 S   0  0
    2.0011   -0.4956    0.0000 O   0  0
    2.0007   -1.1555    0.0000 O   0  0
    0.7144   -0.4125    0.0000 C   0  0
    0.7144    0.4125    0.0000 C   0  0
    0.0000    0.8250    0.0000 C   0  0
   -0.7144    0.4125    0.0000 C   0  0
   -1.4302    0.8237    0.0000 C   0  0
   -2.1444    0.4100    0.0000 N   0  0
   -2.8602    0.8213    0.0000 C   0  0
   -3.5744    0.4075    0.0000 C   0  0
   -3.5716   -0.4175    0.0000 C   0  0
   -4.2847   -0.8325    0.0000 C   0  0
   -4.2801   -1.6579    0.0000 C   0  0
   -4.8500   -1.9909    0.0000 O   0  0
   -3.5632   -2.0672    0.0000 O   0  0
   -5.0005   -0.4225    0.0000 C   0  0
   -5.7148   -0.8362    0.0000 N   0  0
   -6.4305   -0.4249    0.0000 C   0  0
   -6.4306    0.4001    0.0000 C   0  0
   -7.1450    0.8126    0.0000 C   0  0
   -7.8596    0.4001    0.0000 C   0  0
   -8.4311    0.7301    0.0000 I   0  0
   -7.8596   -0.4249    0.0000 C   0  0
   -7.1450   -0.8374    0.0000 C   0  0
   -7.1451   -1.4974    0.0000 F   0  0
   -5.0034    0.4025    0.0000 C   0  0
   -5.5761    0.7306    0.0000 F   0  0
   -4.2904    0.8175    0.0000 C   0  0
   -4.2927    1.4775    0.0000 F   0  0
   -0.7144   -0.4125    0.0000 C   0  0
    0.0000   -0.8250    0.0000 C   0  0
   -5.7139   -1.3862    0.0000 H   0  0
   -3.5602   -2.6172    0.0000 H   0  0
   -2.1435   -0.1400    0.0000 H   0  0
  1  2  1  0
  2  3  2  0
  2  4  2  0
  2  5  1  0
  5  6  2  0
  6  7  1  0
  7  8  2  0
  8  9  1  0
  8 32  1  0
  9 10  1  0
 10 11  1  0
 10 36  1  0
 11 12  1  0
 12 13  2  0
 13 14  1  0
 14 15  1  0
 14 18  2  0
 15 16  2  0
 15 17  1  0
 17 35  1  0
 18 19  1  0
 18 28  1  0
 19 20  1  0
 19 34  1  0
 20 21  2  0
 21 22  1  0
 22 23  2  0
 23 24  1  0
 23 25  1  0
 25 26  2  0
 26 20  1  0
 26 27  1  0
 28 29  1  0
 28 30  2  0
 30 12  1  0
 30 31  1  0
 32 33  2  0
 33  5  1  0
M  END
> <CMPD_CHEMBLID>
CHEMBL465465

> <STANDARD_TYPE>
IC50

> <RELATION>
>

> <STANDARD_VALUE>
30000

> <STANDARD_UNITS>
nM

> <Molecular_Weight>
590.354

$$$$

  SciTegic11272012012D

 43 47  0  0  0  0            999 V2000
    0.8551   -1.9812    0.0000 C   0  0
    1.4273   -1.6521    0.0000 N   0  0
    1.4285   -0.8267    0.0000 C   0  0
    2.0006   -0.4977    0.0000 O   0  0
    0.7144   -0.4125    0.0000 C   0  0
    0.7144    0.4125    0.0000 C   0  0
    0.0000    0.8250    0.0000 C   0  0
   -0.7144    0.4125    0.0000 C   0  0
   -0.7144   -0.4125    0.0000 C   0  0
    0.0000   -0.8250    0.0000 C   0  0
   -1.4302    0.8237    0.0000 C   0  0
   -1.4313    1.4837    0.0000 O   0  0
   -2.1444    0.4100    0.0000 N   0  0
   -2.8602    0.8213    0.0000 C   0  0
   -2.8602    1.6463    0.0000 C   0  0
   -3.5747    2.0588    0.0000 C   0  0
   -4.2892    1.6463    0.0000 C   0  0
   -4.2892    0.8213    0.0000 C   0  0
   -3.5747    0.4088    0.0000 C   0  0
   -3.5764   -0.4167    0.0000 N   0  0
    2.1413   -2.0663    0.0000 C   0  0
    2.1414   -2.8913    0.0000 C   0  0
    2.8558   -3.3038    0.0000 C   0  0
    3.5703   -2.8914    0.0000 C   0  0
    3.5703   -2.0664    0.0000 C   0  0
    4.2843   -1.6522    0.0000 N   0  0
    4.2832   -0.8268    0.0000 C   0  0
    4.9962   -0.4117    0.0000 N   0  0
    4.9934    0.4133    0.0000 C   0  0
    4.2775    0.8233    0.0000 C   0  0
    3.5644    0.4083    0.0000 C   0  0
    3.5673   -0.4167    0.0000 N   0  0
    2.8482    0.8186    0.0000 C   0  0
    2.8440    1.6436    0.0000 C   0  0
    2.1275    2.0525    0.0000 C   0  0
    1.4151    1.6364    0.0000 C   0  0
    1.4192    0.8114    0.0000 N   0  0
    2.1358    0.4025    0.0000 C   0  0
    2.8559   -1.6538    0.0000 C   0  0
    4.7611   -1.9264    0.0000 H   0  0
   -4.0531   -0.6910    0.0000 H   0  0
   -3.1006   -0.6925    0.0000 H   0  0
   -2.1435   -0.1400    0.0000 H   0  0
  1  2  1  0
  2  3  1  0
  2 21  1  0
  3  4  2  0
  3  5  1  0
  5  6  2  0
  6  7  1  0
  7  8  2  0
  8  9  1  0
  8 11  1  0
  9 10  2  0
 10  5  1  0
 11 12  2  0
 11 13  1  0
 13 14  1  0
 13 43  1  0
 14 15  2  0
 15 16  1  0
 16 17  2  0
 17 18  1  0
 18 19  2  0
 19 14  1  0
 19 20  1  0
 20 41  1  0
 20 42  1  0
 21 22  2  0
 22 23  1  0
 23 24  2  0
 24 25  1  0
 25 26  1  0
 25 39  2  0
 26 27  1  0
 26 40  1  0
 27 28  2  0
 28 29  1  0
 29 30  2  0
 30 31  1  0
 31 32  2  0
 31 33  1  0
 32 27  1  0
 33 34  2  0
 34 35  1  0
 35 36  2  0
 36 37  1  0
 37 38  2  0
 38 33  1  0
 39 21  1  0
M  END
> <CMPD_CHEMBLID>
CHEMBL514511

> <STANDARD_TYPE>
IC50

> <RELATION>
=

> <STANDARD_VALUE>
31000

> <STANDARD_UNITS>
nM

> <Molecular_Weight>
515.5652

$$$$

  SciTegic11272012012D

 44 48  0  0  0  0            999 V2000
    1.2861   -0.7425    0.0000 C   0  0
    0.7144   -0.4125    0.0000 C   0  0
    0.7144    0.4125    0.0000 C   0  0
    0.0000    0.8250    0.0000 C   0  0
   -0.7144    0.4125    0.0000 C   0  0
   -1.4302    0.8237    0.0000 N   0  0
   -2.1444    0.4100    0.0000 C   0  0
   -2.1433   -0.2500    0.0000 O   0  0
   -2.8602    0.8213    0.0000 C   0  0
   -3.5747    0.4088    0.0000 C   0  0
   -4.2892    0.8213    0.0000 C   0  0
   -4.2892    1.6463    0.0000 C   0  0
   -3.5747    2.0588    0.0000 N   0  0
   -2.8602    1.6463    0.0000 C   0  0
   -5.0032    2.0604    0.0000 C   0  0
   -5.5754    1.7314    0.0000 O   0  0
   -5.0021    2.8859    0.0000 N   0  0
   -5.7161    3.3001    0.0000 C   0  0
   -6.4306    2.8876    0.0000 C   0  0
   -7.1450    3.3001    0.0000 C   0  0
   -7.1450    4.1251    0.0000 C   0  0
   -6.4306    4.5376    0.0000 C   0  0
   -5.7162    4.1251    0.0000 C   0  0
   -5.0021    4.5393    0.0000 N   0  0
   -0.7144   -0.4125    0.0000 C   0  0
    0.0000   -0.8250    0.0000 C   0  0
   -0.0017   -1.6504    0.0000 N   0  0
   -0.7171   -2.0622    0.0000 C   0  0
   -0.7201   -2.8872    0.0000 N   0  0
   -1.4359   -3.2972    0.0000 C   0  0
   -2.1490   -2.8822    0.0000 C   0  0
   -2.1461   -2.0572    0.0000 C   0  0
   -1.4302   -1.6472    0.0000 N   0  0
   -2.8652   -3.2925    0.0000 C   0  0
   -2.8695   -4.1175    0.0000 C   0  0
   -3.5860   -4.5264    0.0000 C   0  0
   -4.2984   -4.1103    0.0000 C   0  0
   -4.2942   -3.2853    0.0000 N   0  0
   -3.5776   -2.8764    0.0000 C   0  0
    0.4742   -1.9263    0.0000 H   0  0
   -5.0029    5.0893    0.0000 H   0  0
   -4.5253    4.2651    0.0000 H   0  0
   -4.5253    3.1601    0.0000 H   0  0
   -1.4312    1.3737    0.0000 H   0  0
  1  2  1  0
  2  3  2  0
  3  4  1  0
  4  5  2  0
  5  6  1  0
  5 25  1  0
  6  7  1  0
  6 44  1  0
  7  8  2  0
  7  9  1  0
  9 10  2  0
 10 11  1  0
 11 12  2  0
 12 13  1  0
 12 15  1  0
 13 14  2  0
 14  9  1  0
 15 16  2  0
 15 17  1  0
 17 18  1  0
 17 43  1  0
 18 19  2  0
 19 20  1  0
 20 21  2  0
 21 22  1  0
 22 23  2  0
 23 18  1  0
 23 24  1  0
 24 41  1  0
 24 42  1  0
 25 26  2  0
 26  2  1  0
 26 27  1  0
 27 28  1  0
 27 40  1  0
 28 29  2  0
 29 30  1  0
 30 31  2  0
 31 32  1  0
 31 34  1  0
 32 33  2  0
 33 28  1  0
 34 35  2  0
 35 36  1  0
 36 37  2  0
 37 38  1  0
 38 39  2  0
 39 34  1  0
M  END
> <CMPD_CHEMBLID>
CHEMBL515258

> <STANDARD_TYPE>
IC50

> <RELATION>
=

> <STANDARD_VALUE>
32000

> <STANDARD_UNITS>
nM

> <Molecular_Weight>
516.55326

$$$$

  SciTegic11272012012D

 21 23  0  0  0  0            999 V2000
   -0.1742   -2.8725    0.0000 C   0  0
   -0.3790   -2.2450    0.0000 C   0  0
   -1.0247   -2.1088    0.0000 C   0  0
    0.1713   -1.6316    0.0000 N   0  0
    0.9918   -1.7179    0.0000 N   0  0
    1.3273   -0.9642    0.0000 C   0  0
    2.1348   -0.7925    0.0000 C   0  0
    2.7291   -1.3607    0.0000 C   0  0
    3.5209   -1.1288    0.0000 C   0  0
    3.7159   -0.3272    0.0000 C   0  0
    3.1193    0.2426    0.0000 N   0  0
    2.3275    0.0107    0.0000 C   0  0
    0.7145   -0.4125    0.0000 C   0  0
    0.7145    0.4125    0.0000 C   0  0
    1.4285    0.8267    0.0000 N   0  0
    0.0000    0.8250    0.0000 N   0  0
   -0.7145    0.4125    0.0000 C   0  0
   -0.7145   -0.4125    0.0000 N   0  0
    0.0000   -0.8250    0.0000 C   0  0
    1.4277    1.3767    0.0000 H   0  0
    1.9053    0.5525    0.0000 H   0  0
  1  2  1  0
  2  3  1  0
  2  4  1  0
  4  5  1  0
  5  6  2  0
  6  7  1  0
  6 13  1  0
  7  8  2  0
  8  9  1  0
  9 10  2  0
 10 11  1  0
 11 12  2  0
 12  7  1  0
 13 14  2  0
 14 15  1  0
 14 16  1  0
 15 20  1  0
 15 21  1  0
 16 17  2  0
 17 18  1  0
 18 19  2  0
 19  4  1  0
 19 13  1  0
M  END
> <CMPD_CHEMBLID>
CHEMBL1241390

> <STANDARD_TYPE>
IC50

> <RELATION>
=

> <STANDARD_VALUE>
32000

> <STANDARD_UNITS>
nM

> <Molecular_Weight>
254.29046

$$$$

  SciTegic11272012012D

 25 27  0  0  0  0            999 V2000
   -0.2704   -2.1220    0.0000 C   0  0
    0.1713   -1.6316    0.0000 C   0  0
    0.9918   -1.7178    0.0000 N   0  0
    1.3273   -0.9642    0.0000 N   0  0
    1.9729   -0.8269    0.0000 C   0  0
    0.7145   -0.4125    0.0000 C   0  0
    0.7145    0.4125    0.0000 N   0  0
    0.0000    0.8250    0.0000 N   0  0
   -0.7145    0.4125    0.0000 C   0  0
   -1.4302    0.8237    0.0000 N   0  0
   -2.1445    0.4100    0.0000 C   0  0
   -2.8604    0.8200    0.0000 C   0  0
   -3.5735    0.4050    0.0000 C   0  0
   -3.5706   -0.4200    0.0000 C   0  0
   -2.8547   -0.8300    0.0000 C   0  0
   -2.1417   -0.4150    0.0000 C   0  0
   -4.2840   -0.8352    0.0000 S   0  0
   -4.2816   -1.4952    0.0000 O   0  0
   -4.8543   -1.1674    0.0000 O   0  0
   -5.0006   -0.4254    0.0000 N   0  0
   -0.7145   -0.4125    0.0000 N   0  0
    0.0000   -0.8250    0.0000 C   0  0
   -5.4759   -0.7020    0.0000 H   0  0
   -5.0027    0.1246    0.0000 H   0  0
   -1.4312    1.3737    0.0000 H   0  0
  1  2  1  0
  2  3  2  0
  3  4  1  0
  4  5  1  0
  4  6  1  0
  6  7  2  0
  7  8  1  0
  8  9  2  0
  9 10  1  0
  9 21  1  0
 10 11  1  0
 10 25  1  0
 11 12  2  0
 12 13  1  0
 13 14  2  0
 14 15  1  0
 14 17  1  0
 15 16  2  0
 16 11  1  0
 17 18  2  0
 17 19  2  0
 17 20  1  0
 20 23  1  0
 20 24  1  0
 21 22  2  0
 22  2  1  0
 22  6  1  0
M  END
> <CMPD_CHEMBLID>
CHEMBL3237855

> <STANDARD_TYPE>
IC50

> <RELATION>
=

> <STANDARD_VALUE>
33000

> <STANDARD_UNITS>
nM

> <Molecular_Weight>
319.34232

$$$$

  SciTegic11272012012D

 23 25  0  0  0  0            999 V2000
    2.0006   -0.4977    0.0000 O   0  5
    1.4285   -0.8267    0.0000 N   0  3
    1.4276   -1.4867    0.0000 O   0  0
    0.7144   -0.4125    0.0000 C   0  0
    0.7144    0.4125    0.0000 C   0  0
    0.0000    0.8250    0.0000 C   0  0
   -0.7144    0.4125    0.0000 C   0  0
   -0.7144   -0.4125    0.0000 C   0  0
   -1.4285   -0.8267    0.0000 N   0  0
   -1.4273   -1.6521    0.0000 C   0  0
   -2.1403   -2.0672    0.0000 N   0  0
   -2.1375   -2.8922    0.0000 C   0  0
   -1.4216   -3.3022    0.0000 C   0  0
   -0.7086   -2.8872    0.0000 C   0  0
   -0.7114   -2.0622    0.0000 N   0  0
    0.0077   -3.2975    0.0000 C   0  0
    0.0119   -4.1225    0.0000 C   0  0
    0.7285   -4.5314    0.0000 C   0  0
    1.4408   -4.1153    0.0000 C   0  0
    1.4367   -3.2903    0.0000 N   0  0
    0.7201   -2.8814    0.0000 C   0  0
    0.0000   -0.8250    0.0000 C   0  0
   -1.9053   -0.5525    0.0000 H   0  0
  1  2  1  0
  2  3  2  0
  2  4  1  0
  4  5  2  0
  5  6  1  0
  6  7  2  0
  7  8  1  0
  8  9  1  0
  8 22  2  0
  9 10  1  0
  9 23  1  0
 10 11  2  0
 11 12  1  0
 12 13  2  0
 13 14  1  0
 14 15  2  0
 14 16  1  0
 15 10  1  0
 16 17  2  0
 17 18  1  0
 18 19  2  0
 19 20  1  0
 20 21  2  0
 21 16  1  0
 22  4  1  0
M  CHG  2   1  -1   2   1
M  END
> <CMPD_CHEMBLID>
CHEMBL56081

> <STANDARD_TYPE>
IC50

> <RELATION>
=

> <STANDARD_VALUE>
34000

> <STANDARD_UNITS>
nM

> <Molecular_Weight>
293.28014

$$$$

  SciTegic11272012012D

 31 33  0  0  0  0            999 V2000
   -0.2704   -2.1220    0.0000 C   0  0
    0.1713   -1.6316    0.0000 C   0  0
    0.9918   -1.7178    0.0000 N   0  0
    1.3273   -0.9641    0.0000 N   0  0
    1.9729   -0.8269    0.0000 C   0  0
    0.7144   -0.4125    0.0000 C   0  0
    0.7144    0.4125    0.0000 N   0  0
    0.0000    0.8250    0.0000 N   0  0
   -0.7144    0.4125    0.0000 C   0  0
   -1.4302    0.8237    0.0000 N   0  0
   -2.1444    0.4100    0.0000 C   0  0
   -2.8604    0.8200    0.0000 C   0  0
   -3.5734    0.4050    0.0000 C   0  0
   -3.5706   -0.4200    0.0000 C   0  0
   -2.8546   -0.8300    0.0000 C   0  0
   -2.1416   -0.4150    0.0000 C   0  0
   -4.2840   -0.8352    0.0000 S   0  0
   -4.2815   -1.4952    0.0000 O   0  0
   -4.8543   -1.1674    0.0000 O   0  0
   -5.0005   -0.4254    0.0000 N   0  0
   -5.7140   -0.8406    0.0000 C   0  0
   -6.4305   -0.4308    0.0000 C   0  0
   -6.4353    0.3947    0.0000 O   0  0
   -7.1439   -0.8460    0.0000 C   0  0
   -7.8604   -0.4362    0.0000 O   0  0
   -0.7144   -0.4125    0.0000 N   0  0
    0.0000   -0.8250    0.0000 C   0  0
   -8.3358   -0.7129    0.0000 H   0  0
   -6.9131    0.6672    0.0000 H   0  0
   -5.0026    0.1246    0.0000 H   0  0
   -1.4311    1.3737    0.0000 H   0  0
  1  2  1  0
  2  3  2  0
  3  4  1  0
  4  5  1  0
  4  6  1  0
  6  7  2  0
  7  8  1  0
  8  9  2  0
  9 10  1  0
  9 26  1  0
 10 11  1  0
 10 31  1  0
 11 12  2  0
 12 13  1  0
 13 14  2  0
 14 15  1  0
 14 17  1  0
 15 16  2  0
 16 11  1  0
 17 18  2  0
 17 19  2  0
 17 20  1  0
 20 21  1  0
 20 30  1  0
 21 22  1  0
 22 23  1  0
 22 24  1  0
 23 29  1  0
 24 25  1  0
 25 28  1  0
 26 27  2  0
 27  2  1  0
 27  6  1  0
M  END
> <CMPD_CHEMBLID>
CHEMBL3237858

> <STANDARD_TYPE>
IC50

> <RELATION>
=

> <STANDARD_VALUE>
34000

> <STANDARD_UNITS>
nM

> <Molecular_Weight>
393.42086

$$$$

  SciTegic11272012012D

 43 47  0  0  0  0            999 V2000
    1.2861   -0.7425    0.0000 C   0  0
    0.7144   -0.4125    0.0000 C   0  0
    0.7144    0.4125    0.0000 C   0  0
    0.0000    0.8250    0.0000 C   0  0
   -0.7144    0.4125    0.0000 C   0  0
   -1.4302    0.8237    0.0000 N   0  0
   -2.1444    0.4100    0.0000 C   0  0
   -2.1433   -0.2500    0.0000 O   0  0
   -2.8602    0.8213    0.0000 C   0  0
   -3.5747    0.4088    0.0000 C   0  0
   -4.2892    0.8213    0.0000 C   0  0
   -4.2892    1.6463    0.0000 C   0  0
   -3.5747    2.0588    0.0000 C   0  0
   -2.8602    1.6463    0.0000 C   0  0
   -5.0032    2.0604    0.0000 C   0  0
   -5.5754    1.7314    0.0000 O   0  0
   -5.0021    2.8859    0.0000 N   0  0
   -5.7161    3.3001    0.0000 C   0  0
   -6.4306    2.8876    0.0000 C   0  0
   -7.1450    3.3001    0.0000 C   0  0
   -7.1450    4.1251    0.0000 C   0  0
   -6.4306    4.5376    0.0000 C   0  0
   -5.7162    4.1251    0.0000 C   0  0
   -5.0021    4.5393    0.0000 N   0  0
   -0.7144   -0.4125    0.0000 C   0  0
    0.0000   -0.8250    0.0000 C   0  0
   -0.0017   -1.6504    0.0000 N   0  0
   -0.7171   -2.0622    0.0000 C   0  0
   -0.7958   -2.8764    0.0000 N   0  0
   -1.6034   -3.0451    0.0000 C   0  0
   -2.0134   -2.3292    0.0000 C   0  0
   -1.4592   -1.7180    0.0000 S   0  0
   -2.8340   -2.2400    0.0000 C   0  0
   -3.3678   -2.8655    0.0000 C   0  0
   -4.1789   -2.7150    0.0000 C   0  0
   -4.4541   -1.9372    0.0000 C   0  0
   -3.9181   -1.3100    0.0000 N   0  0
   -3.1070   -1.4605    0.0000 C   0  0
    0.4742   -1.9263    0.0000 H   0  0
   -5.0029    5.0893    0.0000 H   0  0
   -4.5253    4.2651    0.0000 H   0  0
   -4.5253    3.1601    0.0000 H   0  0
   -1.4312    1.3737    0.0000 H   0  0
  1  2  1  0
  2  3  2  0
  3  4  1  0
  4  5  2  0
  5  6  1  0
  5 25  1  0
  6  7  1  0
  6 43  1  0
  7  8  2  0
  7  9  1  0
  9 10  2  0
 10 11  1  0
 11 12  2  0
 12 13  1  0
 12 15  1  0
 13 14  2  0
 14  9  1  0
 15 16  2  0
 15 17  1  0
 17 18  1  0
 17 42  1  0
 18 19  2  0
 19 20  1  0
 20 21  2  0
 21 22  1  0
 22 23  2  0
 23 18  1  0
 23 24  1  0
 24 40  1  0
 24 41  1  0
 25 26  2  0
 26  2  1  0
 26 27  1  0
 27 28  1  0
 27 39  1  0
 28 29  2  0
 29 30  1  0
 30 31  2  0
 31 32  1  0
 31 33  1  0
 32 28  1  0
 33 34  2  0
 34 35  1  0
 35 36  2  0
 36 37  1  0
 37 38  2  0
 38 33  1  0
M  END
> <CMPD_CHEMBLID>
CHEMBL515432

> <STANDARD_TYPE>
IC50

> <RELATION>
=

> <STANDARD_VALUE>
34000

> <STANDARD_UNITS>
nM

> <Molecular_Weight>
520.60486

$$$$

  SciTegic11272012012D

 43 47  0  0  0  0            999 V2000
    1.2861   -0.7425    0.0000 C   0  0
    0.7144   -0.4125    0.0000 C   0  0
    0.7144    0.4125    0.0000 C   0  0
    0.0000    0.8250    0.0000 C   0  0
   -0.7144    0.4125    0.0000 C   0  0
   -1.4302    0.8237    0.0000 N   0  0
   -2.1444    0.4100    0.0000 C   0  0
   -2.1433   -0.2500    0.0000 O   0  0
   -2.8602    0.8213    0.0000 C   0  0
   -3.5747    0.4088    0.0000 C   0  0
   -4.2892    0.8213    0.0000 C   0  0
   -4.2892    1.6463    0.0000 C   0  0
   -3.5747    2.0588    0.0000 N   0  0
   -2.8602    1.6463    0.0000 C   0  0
   -5.0032    2.0604    0.0000 C   0  0
   -5.5754    1.7314    0.0000 O   0  0
   -5.0021    2.8859    0.0000 N   0  0
   -5.7161    3.3001    0.0000 C   0  0
   -6.4306    2.8876    0.0000 C   0  0
   -7.1450    3.3001    0.0000 C   0  0
   -7.1450    4.1251    0.0000 C   0  0
   -6.4306    4.5376    0.0000 C   0  0
   -5.7162    4.1251    0.0000 C   0  0
   -5.0021    4.5393    0.0000 N   0  0
   -0.7144   -0.4125    0.0000 C   0  0
    0.0000   -0.8250    0.0000 C   0  0
   -0.0017   -1.6504    0.0000 N   0  0
   -0.7171   -2.0622    0.0000 C   0  0
   -0.7958   -2.8764    0.0000 N   0  0
   -1.6034   -3.0451    0.0000 C   0  0
   -2.0134   -2.3292    0.0000 C   0  0
   -1.4592   -1.7180    0.0000 S   0  0
   -2.8340   -2.2400    0.0000 C   0  0
   -3.3678   -2.8655    0.0000 C   0  0
   -4.1789   -2.7150    0.0000 C   0  0
   -4.4541   -1.9372    0.0000 C   0  0
   -3.9181   -1.3100    0.0000 N   0  0
   -3.1070   -1.4605    0.0000 C   0  0
    0.4742   -1.9263    0.0000 H   0  0
   -5.0029    5.0893    0.0000 H   0  0
   -4.5253    4.2651    0.0000 H   0  0
   -4.5253    3.1601    0.0000 H   0  0
   -1.4312    1.3737    0.0000 H   0  0
  1  2  1  0
  2  3  2  0
  3  4  1  0
  4  5  2  0
  5  6  1  0
  5 25  1  0
  6  7  1  0
  6 43  1  0
  7  8  2  0
  7  9  1  0
  9 10  2  0
 10 11  1  0
 11 12  2  0
 12 13  1  0
 12 15  1  0
 13 14  2  0
 14  9  1  0
 15 16  2  0
 15 17  1  0
 17 18  1  0
 17 42  1  0
 18 19  2  0
 19 20  1  0
 20 21  2  0
 21 22  1  0
 22 23  2  0
 23 18  1  0
 23 24  1  0
 24 40  1  0
 24 41  1  0
 25 26  2  0
 26  2  1  0
 26 27  1  0
 27 28  1  0
 27 39  1  0
 28 29  2  0
 29 30  1  0
 30 31  2  0
 31 32  1  0
 31 33  1  0
 32 28  1  0
 33 34  2  0
 34 35  1  0
 35 36  2  0
 36 37  1  0
 37 38  2  0
 38 33  1  0
M  END
> <CMPD_CHEMBLID>
CHEMBL474046

> <STANDARD_TYPE>
IC50

> <RELATION>
=

> <STANDARD_VALUE>
35000

> <STANDARD_UNITS>
nM

> <Molecular_Weight>
521.59292

$$$$

  SciTegic11272012012D

 27 30  0  0  0  0            999 V2000
    2.2541   -3.0993    0.0000 C   0  0
    2.6435   -2.5664    0.0000 C   0  0
    3.2996   -2.6374    0.0000 C   0  0
    2.3108   -1.8125    0.0000 N   0  0
    1.5040   -1.6398    0.0000 N   0  0
    1.4293   -0.8252    0.0000 C   0  0
    0.7145   -0.4125    0.0000 C   0  0
    0.7145    0.4125    0.0000 C   0  0
    0.0000    0.8250    0.0000 C   0  0
   -0.7145    0.4125    0.0000 C   0  0
   -1.4290    0.8250    0.0000 N   0  0
   -2.1435    0.4125    0.0000 C   0  0
   -2.7151    0.7425    0.0000 O   0  0
   -2.1435   -0.4125    0.0000 C   0  0
   -1.4290   -0.8250    0.0000 C   0  0
   -0.7145   -0.4125    0.0000 C   0  0
    0.0000   -0.8250    0.0000 C   0  0
    2.1728   -0.4850    0.0000 C   0  0
    2.4289    0.2993    0.0000 C   0  0
    1.8786    0.9146    0.0000 N   0  0
    3.2361    0.4697    0.0000 N   0  0
    3.7873   -0.1443    0.0000 C   0  0
    3.5312   -0.9285    0.0000 N   0  0
    2.7239   -1.0989    0.0000 C   0  0
    2.0501    1.4372    0.0000 H   0  0
    1.3403    0.8020    0.0000 H   0  0
   -1.4290    1.3750    0.0000 H   0  0
  1  2  1  0
  2  3  1  0
  2  4  1  0
  4  5  1  0
  5  6  2  0
  6  7  1  0
  6 18  1  0
  7  8  2  0
  8  9  1  0
  9 10  2  0
 10 11  1  0
 11 12  1  0
 11 27  1  0
 12 13  2  0
 12 14  1  0
 14 15  2  0
 15 16  1  0
 16 10  1  0
 16 17  2  0
 17  7  1  0
 18 19  2  0
 19 20  1  0
 19 21  1  0
 20 25  1  0
 20 26  1  0
 21 22  2  0
 22 23  1  0
 23 24  2  0
 24  4  1  0
 24 18  1  0
M  END
> <CMPD_CHEMBLID>
CHEMBL1241863

> <STANDARD_TYPE>
IC50

> <RELATION>
=

> <STANDARD_VALUE>
35000

> <STANDARD_UNITS>
nM

> <Molecular_Weight>
320.34854

$$$$

  SciTegic11272012012D

 38 42  0  0  0  0            999 V2000
    0.2263   -4.5662    0.0000 C   0  0
   -0.4193   -4.4289    0.0000 C   0  0
   -0.9714   -5.0419    0.0000 C   0  0
   -1.7784   -4.8702    0.0000 C   0  0
   -2.0332   -4.0856    0.0000 C   0  0
   -1.4810   -3.4726    0.0000 C   0  0
   -0.6741   -3.6442    0.0000 C   0  0
   -0.1229   -3.0297    0.0000 C   0  0
   -0.3789   -2.2450    0.0000 C   0  0
    0.1713   -1.6316    0.0000 N   0  0
    0.9918   -1.7178    0.0000 C   0  0
    1.3273   -0.9641    0.0000 N   0  0
    0.7144   -0.4125    0.0000 C   0  0
    0.7144    0.4125    0.0000 C   0  0
    1.4285    0.8267    0.0000 N   0  0
    1.4273    1.6521    0.0000 C   0  0
    1.8374    2.3178    0.0000 C   0  0
    1.0124    2.3149    0.0000 C   0  0
    0.0000    0.8250    0.0000 N   0  0
   -0.7144    0.4125    0.0000 C   0  0
   -0.7144   -0.4125    0.0000 N   0  0
    0.0000   -0.8250    0.0000 C   0  0
   -2.8402   -3.9122    0.0000 C   0  0
   -3.2828   -4.4018    0.0000 O   0  0
   -3.0941   -3.1267    0.0000 N   0  0
   -3.9011   -2.9533    0.0000 C   0  0
   -4.1560   -2.1686    0.0000 C   0  0
   -4.9629   -1.9969    0.0000 C   0  0
   -5.5150   -2.6100    0.0000 C   0  0
   -6.1606   -2.4726    0.0000 Cl  0  0
   -5.2603   -3.3946    0.0000 C   0  0
   -4.4533   -3.5663    0.0000 C   0  0
   -5.8127   -4.0080    0.0000 C   0  0
   -6.4583   -3.8710    0.0000 F   0  0
   -5.6086   -4.6356    0.0000 F   0  0
   -6.2542   -4.4986    0.0000 F   0  0
   -2.7252   -2.7186    0.0000 H   0  0
    1.9053    0.5525    0.0000 H   0  0
  1  2  1  0
  2  3  2  0
  3  4  1  0
  4  5  2  0
  5  6  1  0
  5 23  1  0
  6  7  2  0
  7  2  1  0
  7  8  1  0
  8  9  2  0
  9 10  1  0
 10 11  1  0
 11 12  2  0
 12 13  1  0
 13 14  2  0
 14 15  1  0
 14 19  1  0
 15 16  1  0
 15 38  1  0
 16 17  1  0
 17 18  1  0
 18 16  1  0
 19 20  2  0
 20 21  1  0
 21 22  2  0
 22 10  1  0
 22 13  1  0
 23 24  2  0
 23 25  1  0
 25 26  1  0
 25 37  1  0
 26 27  2  0
 27 28  1  0
 28 29  2  0
 29 30  1  0
 29 31  1  0
 31 32  2  0
 31 33  1  0
 32 26  1  0
 33 34  1  0
 33 35  1  0
 33 36  1  0
M  END
> <CMPD_CHEMBLID>
CHEMBL564235

> <STANDARD_TYPE>
IC50

> <RELATION>
=

> <STANDARD_VALUE>
37000

> <STANDARD_UNITS>
nM

> <Molecular_Weight>
512.91411

$$$$

  SciTegic11272012012D

 42 46  0  0  0  0            999 V2000
    1.4302   -0.8237    0.0000 N   0  0
    0.7144   -0.4125    0.0000 C   0  0
    0.7144    0.4125    0.0000 C   0  0
    0.0000    0.8250    0.0000 C   0  0
   -0.7144    0.4125    0.0000 C   0  0
   -0.7144   -0.4125    0.0000 C   0  0
    0.0000   -0.8250    0.0000 C   0  0
   -0.0017   -1.6504    0.0000 N   0  0
   -0.7171   -2.0622    0.0000 C   0  0
   -1.2882   -1.7312    0.0000 O   0  0
   -0.7188   -2.8876    0.0000 C   0  0
   -1.4333   -3.3002    0.0000 C   0  0
   -1.4333   -4.1252    0.0000 C   0  0
   -0.7188   -4.5377    0.0000 C   0  0
   -0.0044   -4.1252    0.0000 C   0  0
   -0.0043   -3.3002    0.0000 C   0  0
   -0.7172   -5.3631    0.0000 C   0  0
   -1.2882   -5.6941    0.0000 O   0  0
   -0.0018   -5.7748    0.0000 N   0  0
   -0.0001   -6.6003    0.0000 C   0  0
    0.7144   -7.0128    0.0000 C   0  0
    0.7144   -7.8378    0.0000 C   0  0
   -0.0001   -8.2503    0.0000 C   0  0
   -0.7146   -7.8379    0.0000 C   0  0
   -1.4303   -8.2491    0.0000 N   0  0
   -2.1445   -7.8354    0.0000 C   0  0
   -2.8890   -8.1744    0.0000 N   0  0
   -3.4389   -7.5594    0.0000 C   0  0
   -3.0239   -6.8463    0.0000 C   0  0
   -2.2175   -7.0206    0.0000 S   0  0
   -3.3570   -6.0911    0.0000 C   0  0
   -4.1655   -5.9415    0.0000 C   0  0
   -4.4408   -5.1638    0.0000 C   0  0
   -3.9048   -4.5366    0.0000 C   0  0
   -3.0936   -4.6872    0.0000 N   0  0
   -2.8185   -5.4649    0.0000 C   0  0
   -0.7146   -7.0129    0.0000 C   0  0
   -1.4312   -8.7991    0.0000 H   0  0
    0.4741   -5.4990    0.0000 H   0  0
    0.4742   -1.9263    0.0000 H   0  0
    1.9061   -0.5481    0.0000 H   0  0
    1.4312   -1.3737    0.0000 H   0  0
  1  2  1  0
  1 41  1  0
  1 42  1  0
  2  3  2  0
  3  4  1  0
  4  5  2  0
  5  6  1  0
  6  7  2  0
  7  2  1  0
  7  8  1  0
  8  9  1  0
  8 40  1  0
  9 10  2  0
  9 11  1  0
 11 12  2  0
 12 13  1  0
 13 14  2  0
 14 15  1  0
 14 17  1  0
 15 16  2  0
 16 11  1  0
 17 18  2  0
 17 19  1  0
 19 20  1  0
 19 39  1  0
 20 21  2  0
 21 22  1  0
 22 23  2  0
 23 24  1  0
 24 25  1  0
 24 37  2  0
 25 26  1  0
 25 38  1  0
 26 27  2  0
 27 28  1  0
 28 29  2  0
 29 30  1  0
 29 31  1  0
 30 26  1  0
 31 32  2  0
 32 33  1  0
 33 34  2  0
 34 35  1  0
 35 36  2  0
 36 31  1  0
 37 20  1  0
M  END
> <CMPD_CHEMBLID>
CHEMBL474015

> <STANDARD_TYPE>
IC50

> <RELATION>
=

> <STANDARD_VALUE>
39000

> <STANDARD_UNITS>
nM

> <Molecular_Weight>
506.57828

$$$$

  SciTegic11272012012D

 28 30  0  0  0  0            999 V2000
   -0.2704   -2.1220    0.0000 C   0  0
    0.1713   -1.6316    0.0000 C   0  0
    0.9918   -1.7178    0.0000 N   0  0
    1.3273   -0.9641    0.0000 N   0  0
    1.9729   -0.8269    0.0000 C   0  0
    0.7144   -0.4125    0.0000 C   0  0
    0.7144    0.4125    0.0000 N   0  0
    0.0000    0.8250    0.0000 N   0  0
   -0.7144    0.4125    0.0000 C   0  0
   -1.4302    0.8237    0.0000 N   0  0
   -2.1444    0.4100    0.0000 C   0  0
   -2.8604    0.8200    0.0000 C   0  0
   -3.5734    0.4050    0.0000 C   0  0
   -3.5706   -0.4200    0.0000 C   0  0
   -2.8546   -0.8300    0.0000 C   0  0
   -2.1416   -0.4150    0.0000 C   0  0
   -4.2840   -0.8352    0.0000 S   0  0
   -4.2815   -1.4952    0.0000 O   0  0
   -4.8543   -1.1674    0.0000 O   0  0
   -5.0005   -0.4254    0.0000 N   0  0
   -5.7140   -0.8406    0.0000 C   0  0
   -6.4305   -0.4308    0.0000 C   0  0
   -7.1439   -0.8460    0.0000 O   0  0
   -0.7144   -0.4125    0.0000 N   0  0
    0.0000   -0.8250    0.0000 C   0  0
   -7.6214   -0.5729    0.0000 H   0  0
   -5.0026    0.1246    0.0000 H   0  0
   -1.4311    1.3737    0.0000 H   0  0
  1  2  1  0
  2  3  2  0
  3  4  1  0
  4  5  1  0
  4  6  1  0
  6  7  2  0
  7  8  1  0
  8  9  2  0
  9 10  1  0
  9 24  1  0
 10 11  1  0
 10 28  1  0
 11 12  2  0
 12 13  1  0
 13 14  2  0
 14 15  1  0
 14 17  1  0
 15 16  2  0
 16 11  1  0
 17 18  2  0
 17 19  2  0
 17 20  1  0
 20 21  1  0
 20 27  1  0
 21 22  1  0
 22 23  1  0
 23 26  1  0
 24 25  2  0
 25  2  1  0
 25  6  1  0
M  END
> <CMPD_CHEMBLID>
CHEMBL3237851

> <STANDARD_TYPE>
IC50

> <RELATION>
=

> <STANDARD_VALUE>
39000

> <STANDARD_UNITS>
nM

> <Molecular_Weight>
363.39488

$$$$

  SciTegic11272012012D

 18 20  0  0  0  0            999 V2000
    1.5704   -0.3584    0.0000 O   0  0
    0.9269   -0.2115    0.0000 C   0  0
    0.7433    0.5928    0.0000 N   0  0
    0.0000    0.9507    0.0000 C   0  0
    0.0613    1.7740    0.0000 C   0  0
   -0.6203    2.2388    0.0000 C   0  0
   -1.3636    1.8808    0.0000 C   0  0
   -1.4253    1.0581    0.0000 C   0  0
   -0.7433    0.5927    0.0000 C   0  0
   -0.9269   -0.2116    0.0000 N   0  0
   -0.4125   -0.8566    0.0000 C   0  0
   -0.8250   -1.5717    0.0000 C   0  0
   -0.4125   -2.2862    0.0000 C   0  0
    0.4125   -2.2862    0.0000 C   0  0
    0.8250   -1.5717    0.0000 C   0  0
    0.4125   -0.8566    0.0000 C   0  0
   -1.4631   -0.3340    0.0000 H   0  0
    1.1733    0.9357    0.0000 H   0  0
  1  2  2  0
  2  3  1  0
  3  4  1  0
  3 18  1  0
  4  5  2  0
  5  6  1  0
  6  7  2  0
  7  8  1  0
  8  9  2  0
  9  4  1  0
  9 10  1  0
 10 11  1  0
 10 17  1  0
 11 12  2  0
 12 13  1  0
 13 14  2  0
 14 15  1  0
 15 16  2  0
 16  2  1  0
 16 11  1  0
M  END
> <CMPD_CHEMBLID>
CHEMBL1727312

> <STANDARD_TYPE>
Ki

> <RELATION>
>

> <STANDARD_VALUE>
39810.72

> <STANDARD_UNITS>
nM

> <Molecular_Weight>
210.2313

$$$$

  SciTegic11272012012D

 20 22  0  0  0  0            999 V2000
   -0.3789   -2.2450    0.0000 N   0  0
    0.1713   -1.6316    0.0000 C   0  0
    0.9918   -1.7178    0.0000 N   0  0
    1.3273   -0.9641    0.0000 N   0  0
    0.7144   -0.4125    0.0000 C   0  0
    0.7144    0.4125    0.0000 C   0  0
    0.0000    0.8250    0.0000 C   0  0
   -0.7144    0.4125    0.0000 C   0  0
   -0.7144   -0.4125    0.0000 C   0  0
   -1.4293   -0.8252    0.0000 C   0  0
   -2.1445   -0.4139    0.0000 C   0  0
   -2.8583   -0.8275    0.0000 C   0  0
   -2.8570   -1.6525    0.0000 C   0  0
   -3.5703   -2.0678    0.0000 C   0  0
   -3.5683   -2.7278    0.0000 C   0  0
   -2.1419   -2.0639    0.0000 C   0  0
   -1.4280   -1.6502    0.0000 C   0  0
    0.0000   -0.8250    0.0000 N   0  0
   -0.2083   -2.7679    0.0000 H   0  0
   -0.9171   -2.1315    0.0000 H   0  0
  1  2  1  0
  1 19  1  0
  1 20  1  0
  2  3  2  0
  3  4  1  0
  4  5  2  0
  5  6  1  0
  6  7  2  0
  7  8  1  0
  8  9  2  0
  9 10  1  0
  9 18  1  0
 10 11  2  0
 11 12  1  0
 12 13  2  0
 13 14  1  0
 13 16  1  0
 14 15  2  0
 16 17  2  0
 17 10  1  0
 18  2  1  0
 18  5  1  0
M  END
> <CMPD_CHEMBLID>
CHEMBL1983573

> <STANDARD_TYPE>
Ki

> <RELATION>
=

> <STANDARD_VALUE>
39810.72

> <STANDARD_UNITS>
nM

> <Molecular_Weight>
236.27188

$$$$

  SciTegic11272012012D

 13 14  0  0  0  0            999 V2000
    1.2861   -0.7425    0.0000 Cl  0  0
    0.7145   -0.4125    0.0000 C   0  0
    0.7145    0.4125    0.0000 C   0  0
    0.0000    0.8250    0.0000 C   0  0
   -0.7145    0.4125    0.0000 C   0  0
   -0.7145   -0.4125    0.0000 C   0  0
   -1.4290   -0.8250    0.0000 C   0  0
   -2.0006   -0.4950    0.0000 O   0  0
   -1.4290   -1.6500    0.0000 N   0  0
   -0.7145   -2.0625    0.0000 C   0  0
    0.0000   -1.6500    0.0000 N   0  0
    0.0000   -0.8250    0.0000 C   0  0
   -1.9053   -1.9250    0.0000 H   0  0
  1  2  1  0
  2  3  2  0
  3  4  1  0
  4  5  2  0
  5  6  1  0
  6  7  1  0
  7  8  2  0
  7  9  1  0
  9 10  1  0
  9 13  1  0
 10 11  2  0
 11 12  1  0
 12  2  1  0
 12  6  2  0
M  END
> <CMPD_CHEMBLID>
CHEMBL1949855

> <STANDARD_TYPE>
Ki

> <RELATION>
=

> <STANDARD_VALUE>
39810.72

> <STANDARD_UNITS>
nM

> <Molecular_Weight>
180.5911

$$$$

  SciTegic11272012012D

 16 18  0  0  0  0            999 V2000
    1.2861   -0.7425    0.0000 Cl  0  0
    0.7145   -0.4125    0.0000 C   0  0
    0.7145    0.4125    0.0000 C   0  0
    0.0000    0.8250    0.0000 C   0  0
   -0.7145    0.4125    0.0000 C   0  0
   -1.4290    0.8250    0.0000 N   0  0
   -2.1435    0.4125    0.0000 C   0  0
   -2.7151    0.7425    0.0000 O   0  0
   -2.1435   -0.4125    0.0000 N   0  0
   -2.7563   -0.9642    0.0000 N   0  0
   -2.4208   -1.7179    0.0000 C   0  0
   -1.6003   -1.6316    0.0000 N   0  0
   -1.4290   -0.8250    0.0000 C   0  0
   -0.7145   -0.4125    0.0000 C   0  0
    0.0000   -0.8250    0.0000 C   0  0
   -1.4290    1.3750    0.0000 H   0  0
  1  2  1  0
  2  3  2  0
  3  4  1  0
  4  5  2  0
  5  6  1  0
  6  7  1  0
  6 16  1  0
  7  8  2  0
  7  9  1  0
  9 10  1  0
 10 11  2  0
 11 12  1  0
 12 13  2  0
 13  9  1  0
 13 14  1  0
 14  5  1  0
 14 15  2  0
 15  2  1  0
M  END
> <CMPD_CHEMBLID>
CHEMBL1992673

> <STANDARD_TYPE>
Ki

> <RELATION>
=

> <STANDARD_VALUE>
39810.72

> <STANDARD_UNITS>
nM

> <Molecular_Weight>
220.6152

$$$$

  SciTegic11272012012D

 13 14  0  0  0  0            999 V2000
    1.2861   -0.7425    0.0000 Br  0  0
    0.7145   -0.4125    0.0000 C   0  0
    0.7145    0.4125    0.0000 C   0  0
    0.0000    0.8250    0.0000 C   0  0
   -0.7145    0.4125    0.0000 C   0  0
   -1.4987    0.6674    0.0000 N   0  0
   -1.9836    0.0000    0.0000 N   0  0
   -1.4987   -0.6674    0.0000 C   0  0
   -1.7026   -1.2952    0.0000 O   0  0
   -0.7145   -0.4125    0.0000 C   0  0
    0.0000   -0.8250    0.0000 C   0  0
   -2.5336    0.0000    0.0000 H   0  0
   -1.6686    1.1906    0.0000 H   0  0
  1  2  1  0
  2  3  2  0
  3  4  1  0
  4  5  2  0
  5  6  1  0
  6  7  1  0
  6 13  1  0
  7  8  1  0
  7 12  1  0
  8  9  2  0
  8 10  1  0
 10  5  1  0
 10 11  2  0
 11  2  1  0
M  END
> <CMPD_CHEMBLID>
CHEMBL2001613

> <STANDARD_TYPE>
Ki

> <RELATION>
=

> <STANDARD_VALUE>
39810.72

> <STANDARD_UNITS>
nM

> <Molecular_Weight>
213.0314

$$$$

  SciTegic11272012012D

 18 20  0  0  0  0            999 V2000
    1.4302   -0.8237    0.0000 N   0  0
    2.1444   -0.4100    0.0000 C   0  0
    2.8604   -0.8200    0.0000 C   0  0
    3.5734   -0.4050    0.0000 C   0  0
    3.5706    0.4200    0.0000 C   0  0
    2.8546    0.8300    0.0000 C   0  0
    2.1416    0.4150    0.0000 C   0  0
    0.7144   -0.4125    0.0000 C   0  0
    0.7144    0.4125    0.0000 N   0  0
    0.0000    0.8250    0.0000 C   0  0
   -0.7144    0.4125    0.0000 N   0  0
   -0.7144   -0.4125    0.0000 C   0  0
   -1.4289   -0.8250    0.0000 C   0  0
   -1.4289   -1.6500    0.0000 C   0  0
   -0.7144   -2.0625    0.0000 C   0  0
    0.0000   -1.6500    0.0000 C   0  0
    0.0000   -0.8250    0.0000 C   0  0
    1.4311   -1.3737    0.0000 H   0  0
  1  2  1  0
  1  8  1  0
  1 18  1  0
  2  3  2  0
  3  4  1  0
  4  5  2  0
  5  6  1  0
  6  7  2  0
  7  2  1  0
  8  9  2  0
  9 10  1  0
 10 11  2  0
 11 12  1  0
 12 13  2  0
 13 14  1  0
 14 15  2  0
 15 16  1  0
 16 17  2  0
 17  8  1  0
 17 12  1  0
M  END
> <CMPD_CHEMBLID>
CHEMBL289959

> <STANDARD_TYPE>
Ki

> <RELATION>
=

> <STANDARD_VALUE>
39810.72

> <STANDARD_UNITS>
nM

> <Molecular_Weight>
221.25724

$$$$

  SciTegic11272012012D

 40 44  0  0  0  0            999 V2000
    0.2263   -4.5662    0.0000 C   0  0
   -0.4193   -4.4288    0.0000 C   0  0
   -0.9714   -5.0419    0.0000 C   0  0
   -1.7784   -4.8702    0.0000 C   0  0
   -2.0332   -4.0855    0.0000 C   0  0
   -2.8402   -3.9121    0.0000 N   0  0
   -3.0941   -3.1267    0.0000 C   0  0
   -2.6515   -2.6371    0.0000 O   0  0
   -3.9011   -2.9533    0.0000 C   0  0
   -4.1559   -2.1686    0.0000 C   0  0
   -4.9628   -1.9969    0.0000 C   0  0
   -5.5150   -2.6100    0.0000 C   0  0
   -5.2602   -3.3946    0.0000 C   0  0
   -4.4533   -3.5663    0.0000 C   0  0
   -5.8126   -4.0079    0.0000 C   0  0
   -6.4583   -3.8710    0.0000 F   0  0
   -5.6086   -4.6356    0.0000 F   0  0
   -6.2541   -4.4985    0.0000 F   0  0
   -1.4810   -3.4726    0.0000 C   0  0
   -0.6741   -3.6442    0.0000 C   0  0
   -0.1229   -3.0297    0.0000 C   0  0
   -0.3789   -2.2450    0.0000 C   0  0
    0.1713   -1.6316    0.0000 N   0  0
    0.9918   -1.7178    0.0000 C   0  0
    1.3273   -0.9641    0.0000 N   0  0
    0.7144   -0.4125    0.0000 C   0  0
    0.7144    0.4125    0.0000 C   0  0
    1.4285    0.8267    0.0000 N   0  0
    1.4273    1.6521    0.0000 C   0  0
    2.1403    2.0672    0.0000 C   0  0
    2.1375    2.8922    0.0000 C   0  0
    1.4216    3.3022    0.0000 N   0  0
    0.7086    2.8872    0.0000 C   0  0
    0.7114    2.0622    0.0000 N   0  0
    0.0000    0.8250    0.0000 N   0  0
   -0.7144    0.4125    0.0000 C   0  0
   -0.7144   -0.4125    0.0000 N   0  0
    0.0000   -0.8250    0.0000 C   0  0
    1.9052    0.5525    0.0000 H   0  0
   -3.2090   -4.3202    0.0000 H   0  0
  1  2  1  0
  2  3  2  0
  3  4  1  0
  4  5  2  0
  5  6  1  0
  5 19  1  0
  6  7  1  0
  6 40  1  0
  7  8  2  0
  7  9  1  0
  9 10  2  0
 10 11  1  0
 11 12  2  0
 12 13  1  0
 13 14  2  0
 13 15  1  0
 14  9  1  0
 15 16  1  0
 15 17  1  0
 15 18  1  0
 19 20  2  0
 20  2  1  0
 20 21  1  0
 21 22  2  0
 22 23  1  0
 23 24  1  0
 24 25  2  0
 25 26  1  0
 26 27  2  0
 27 28  1  0
 27 35  1  0
 28 29  1  0
 28 39  1  0
 29 30  2  0
 30 31  1  0
 31 32  2  0
 32 33  1  0
 33 34  2  0
 34 29  1  0
 35 36  2  0
 36 37  1  0
 37 38  2  0
 38 23  1  0
 38 26  1  0
M  END
> <CMPD_CHEMBLID>
CHEMBL565084

> <STANDARD_TYPE>
IC50

> <RELATION>
=

> <STANDARD_VALUE>
40000

> <STANDARD_UNITS>
nM

> <Molecular_Weight>
516.47727

$$$$

  SciTegic11272012012D

 33 37  0  0  0  0            999 V2000
    3.4382   -1.9726    0.0000 C   0  0
    2.8649   -1.6454    0.0000 S   0  0
    2.8604   -0.8200    0.0000 C   0  0
    3.5735   -0.4050    0.0000 C   0  0
    3.5706    0.4200    0.0000 C   0  0
    2.8547    0.8300    0.0000 C   0  0
    2.1416    0.4150    0.0000 C   0  0
    2.1444   -0.4100    0.0000 C   0  0
    1.4302   -0.8237    0.0000 N   0  0
    0.7144   -0.4125    0.0000 C   0  0
    0.7144    0.4125    0.0000 N   0  0
    0.0000    0.8250    0.0000 C   0  0
   -0.7144    0.4125    0.0000 N   0  0
   -0.7144   -0.4125    0.0000 C   0  0
   -1.4290   -0.8250    0.0000 C   0  0
   -2.1447   -0.4138    0.0000 N   0  0
   -2.8590   -0.8275    0.0000 C   0  0
   -3.5747   -0.4162    0.0000 C   0  0
   -4.3561   -0.4413    0.0000 C   0  0
   -3.9435    0.2731    0.0000 C   0  0
   -1.4290   -1.6500    0.0000 N   0  0
   -0.7144   -2.0625    0.0000 C   0  0
    0.0000   -1.6500    0.0000 N   0  0
    0.0000   -0.8250    0.0000 C   0  0
    0.0000    1.6504    0.0000 N   0  0
    0.7138    2.0641    0.0000 C   0  0
    0.7125    2.8891    0.0000 C   0  0
   -0.0026    3.3005    0.0000 N   0  0
   -0.7164    2.8868    0.0000 C   0  0
   -0.7151    2.0618    0.0000 C   0  0
   -0.0035    3.8505    0.0000 H   0  0
   -2.1456    0.1362    0.0000 H   0  0
    1.4312   -1.3737    0.0000 H   0  0
  1  2  1  0
  2  3  1  0
  3  4  2  0
  4  5  1  0
  5  6  2  0
  6  7  1  0
  7  8  2  0
  8  3  1  0
  8  9  1  0
  9 10  1  0
  9 33  1  0
 10 11  2  0
 11 12  1  0
 12 13  2  0
 12 25  1  0
 13 14  1  0
 14 15  2  0
 15 16  1  0
 15 21  1  0
 16 17  1  0
 16 32  1  0
 17 18  1  0
 18 19  1  0
 19 20  1  0
 20 18  1  0
 21 22  2  0
 22 23  1  0
 23 24  2  0
 24 10  1  0
 24 14  1  0
 25 26  1  0
 26 27  1  0
 27 28  1  0
 28 29  1  0
 28 31  1  0
 29 30  1  0
 30 25  1  0
M  END
> <CMPD_CHEMBLID>
CHEMBL2017214

> <STANDARD_TYPE>
IC50

> <RELATION>
>

> <STANDARD_VALUE>
40000

> <STANDARD_UNITS>
nM

> <Molecular_Weight>
422.54974

$$$$

  SciTegic11272012012D

 26 29  0  0  0  0            999 V2000
   -0.1742   -2.8725    0.0000 C   0  0
   -0.3790   -2.2450    0.0000 C   0  0
   -1.0247   -2.1088    0.0000 C   0  0
    0.1713   -1.6316    0.0000 N   0  0
    0.9918   -1.7178    0.0000 N   0  0
    1.3273   -0.9642    0.0000 C   0  0
    2.1347   -0.7925    0.0000 C   0  0
    2.7753   -1.2969    0.0000 C   0  0
    3.4549   -0.8298    0.0000 C   0  0
    4.2571   -1.0225    0.0000 C   0  0
    4.8251   -0.4241    0.0000 C   0  0
    5.6281   -0.6152    0.0000 C   0  0
    6.0818   -0.1359    0.0000 O   0  0
    4.5908    0.3670    0.0000 C   0  0
    3.7886    0.5597    0.0000 C   0  0
    3.2207   -0.0387    0.0000 C   0  0
    2.3964   -0.0169    0.0000 S   0  0
    0.7145   -0.4125    0.0000 C   0  0
    0.7145    0.4125    0.0000 C   0  0
    1.4285    0.8267    0.0000 N   0  0
    0.0000    0.8250    0.0000 N   0  0
   -0.7145    0.4125    0.0000 C   0  0
   -0.7145   -0.4125    0.0000 N   0  0
    0.0000   -0.8250    0.0000 C   0  0
    1.4277    1.3767    0.0000 H   0  0
    1.9053    0.5525    0.0000 H   0  0
  1  2  1  0
  2  3  1  0
  2  4  1  0
  4  5  1  0
  5  6  2  0
  6  7  1  0
  6 18  1  0
  7  8  2  0
  8  9  1  0
  9 10  2  0
 10 11  1  0
 11 12  1  0
 11 14  2  0
 12 13  2  0
 14 15  1  0
 15 16  2  0
 16  9  1  0
 16 17  1  0
 17  7  1  0
 18 19  2  0
 19 20  1  0
 19 21  1  0
 20 25  1  0
 20 26  1  0
 21 22  2  0
 22 23  1  0
 23 24  2  0
 24  4  1  0
 24 18  1  0
M  END
> <CMPD_CHEMBLID>
CHEMBL1241684

> <STANDARD_TYPE>
IC50

> <RELATION>
=

> <STANDARD_VALUE>
50000

> <STANDARD_UNITS>
nM

> <Molecular_Weight>
337.3989

$$$$

  SciTegic11272012012D

 29 32  0  0  0  0            999 V2000
    2.8661    1.4821    0.0000 C   0  0
    2.8636    0.8221    0.0000 C   0  0
    2.1475    0.4116    0.0000 O   0  0
    2.1445   -0.4139    0.0000 C   0  0
    2.8583   -0.8275    0.0000 C   0  0
    2.8570   -1.6525    0.0000 C   0  0
    2.1419   -2.0639    0.0000 C   0  0
    1.4281   -1.6502    0.0000 C   0  0
    1.4293   -0.8252    0.0000 C   0  0
    0.7144   -0.4125    0.0000 C   0  0
    0.7144    0.4125    0.0000 N   0  0
    0.0000    0.8250    0.0000 N   0  0
   -0.7144    0.4125    0.0000 C   0  0
   -0.7144   -0.4125    0.0000 C   0  0
    0.0000   -0.8250    0.0000 N   0  0
   -1.4986   -0.6674    0.0000 C   0  0
   -1.7025   -1.2951    0.0000 C   0  0
   -1.9836    0.0000    0.0000 N   0  0
   -1.4986    0.6674    0.0000 N   0  0
   -1.7025    1.2951    0.0000 C   0  0
    2.1405   -2.8893    0.0000 S   0  0
    1.5684   -3.2182    0.0000 O   0  0
    1.5695   -2.5583    0.0000 O   0  0
    2.8545   -3.3036    0.0000 N   0  0
    2.8527   -4.1286    0.0000 C   0  0
    3.5663   -4.5427    0.0000 C   0  0
    4.2816   -4.1318    0.0000 O   0  0
    4.2835   -3.3068    0.0000 C   0  0
    3.5699   -2.8927    0.0000 C   0  0
  1  2  1  0
  2  3  1  0
  3  4  1  0
  4  5  2  0
  5  6  1  0
  6  7  2  0
  7  8  1  0
  7 21  1  0
  8  9  2  0
  9  4  1  0
  9 10  1  0
 10 11  2  0
 11 12  1  0
 12 13  2  0
 13 14  1  0
 14 15  2  0
 14 16  1  0
 15 10  1  0
 16 17  1  0
 16 18  2  0
 18 19  1  0
 19 13  1  0
 19 20  1  0
 21 22  2  0
 21 23  2  0
 21 24  1  0
 24 25  1  0
 25 26  1  0
 26 27  1  0
 27 28  1  0
 28 29  1  0
 29 24  1  0
M  END
> <CMPD_CHEMBLID>
CHEMBL3261389

> <STANDARD_TYPE>
IC50

> <RELATION>
>

> <STANDARD_VALUE>
50000

> <STANDARD_UNITS>
nM

> <Molecular_Weight>
418.47008

$$$$

  SciTegic11272012012D

 28 30  0  0  0  0            999 V2000
    2.1404   -2.7264    0.0000 F   0  0
    2.1413   -2.0663    0.0000 C   0  0
    2.7135   -1.7373    0.0000 F   0  0
    1.4273   -1.6521    0.0000 C   0  0
    0.8562   -1.3213    0.0000 F   0  0
    0.8551   -1.9812    0.0000 F   0  0
    1.4285   -0.8267    0.0000 O   0  0
    0.7144   -0.4125    0.0000 C   0  0
    0.7144    0.4125    0.0000 C   0  0
    0.0000    0.8250    0.0000 C   0  0
   -0.7144    0.4125    0.0000 C   0  0
   -0.7144   -0.4125    0.0000 C   0  0
   -1.4285   -0.8267    0.0000 N   0  0
   -1.4273   -1.6521    0.0000 C   0  0
   -2.1403   -2.0672    0.0000 N   0  0
   -2.1375   -2.8922    0.0000 C   0  0
   -1.4216   -3.3022    0.0000 C   0  0
   -0.7086   -2.8872    0.0000 C   0  0
   -0.7114   -2.0622    0.0000 N   0  0
    0.0077   -3.2975    0.0000 C   0  0
    0.0119   -4.1225    0.0000 C   0  0
    0.7285   -4.5314    0.0000 C   0  0
    1.4408   -4.1153    0.0000 C   0  0
    2.0141   -4.4423    0.0000 Cl  0  0
    1.4367   -3.2903    0.0000 C   0  0
    0.7201   -2.8814    0.0000 C   0  0
    0.0000   -0.8250    0.0000 C   0  0
   -1.9053   -0.5525    0.0000 H   0  0
  1  2  1  0
  2  3  1  0
  2  4  1  0
  4  5  1  0
  4  6  1  0
  4  7  1  0
  7  8  1  0
  8  9  2  0
  9 10  1  0
 10 11  2  0
 11 12  1  0
 12 13  1  0
 12 27  2  0
 13 14  1  0
 13 28  1  0
 14 15  2  0
 15 16  1  0
 16 17  2  0
 17 18  1  0
 18 19  2  0
 18 20  1  0
 19 14  1  0
 20 21  2  0
 21 22  1  0
 22 23  2  0
 23 24  1  0
 23 25  1  0
 25 26  2  0
 26 20  1  0
 27  8  1  0
M  END
> <CMPD_CHEMBLID>
CHEMBL57581

> <STANDARD_TYPE>
IC50

> <RELATION>
>

> <STANDARD_VALUE>
50000

> <STANDARD_UNITS>
nM

> <Molecular_Weight>
397.75399

$$$$

  SciTegic11272012012D

 24 26  0  0  0  0            999 V2000
   -0.1742   -2.8725    0.0000 C   0  0
   -0.3790   -2.2450    0.0000 C   0  0
   -1.0247   -2.1088    0.0000 C   0  0
    0.1713   -1.6316    0.0000 N   0  0
    0.9918   -1.7179    0.0000 N   0  0
    1.3273   -0.9642    0.0000 C   0  0
    2.1348   -0.7925    0.0000 C   0  0
    2.7291   -1.3607    0.0000 C   0  0
    3.5209   -1.1288    0.0000 C   0  0
    3.7159   -0.3272    0.0000 C   0  0
    3.1193    0.2426    0.0000 C   0  0
    3.3128    1.0450    0.0000 C   0  0
    2.7150    1.6142    0.0000 C   0  0
    2.2370    2.0694    0.0000 N   0  0
    2.3275    0.0107    0.0000 C   0  0
    0.7145   -0.4125    0.0000 C   0  0
    0.7145    0.4125    0.0000 C   0  0
    1.4285    0.8267    0.0000 N   0  0
    0.0000    0.8250    0.0000 N   0  0
   -0.7145    0.4125    0.0000 C   0  0
   -0.7145   -0.4125    0.0000 N   0  0
    0.0000   -0.8250    0.0000 C   0  0
    1.4277    1.3767    0.0000 H   0  0
    1.9053    0.5525    0.0000 H   0  0
  1  2  1  0
  2  3  1  0
  2  4  1  0
  4  5  1  0
  5  6  2  0
  6  7  1  0
  6 16  1  0
  7  8  2  0
  8  9  1  0
  9 10  2  0
 10 11  1  0
 11 12  1  0
 11 15  2  0
 12 13  1  0
 13 14  3  0
 15  7  1  0
 16 17  2  0
 17 18  1  0
 17 19  1  0
 18 23  1  0
 18 24  1  0
 19 20  2  0
 20 21  1  0
 21 22  2  0
 22  4  1  0
 22 16  1  0
M  END
> <CMPD_CHEMBLID>
CHEMBL1241583

> <STANDARD_TYPE>
IC50

> <RELATION>
=

> <STANDARD_VALUE>
50000

> <STANDARD_UNITS>
nM

> <Molecular_Weight>
292.33844

$$$$

  SciTegic11272012012D

 30 33  0  0  0  0            999 V2000
    0.8552   -1.9812    0.0000 C   0  0
    1.4273   -1.6522    0.0000 C   0  0
    1.4285   -0.8267    0.0000 O   0  0
    0.7145   -0.4125    0.0000 C   0  0
    0.7145    0.4125    0.0000 C   0  0
    0.0000    0.8250    0.0000 C   0  0
   -0.7145    0.4125    0.0000 C   0  0
   -1.4290    0.8250    0.0000 N   0  0
   -2.1435    0.4125    0.0000 C   0  0
   -2.1435   -0.4125    0.0000 C   0  0
   -1.4290   -0.8250    0.0000 C   0  0
   -0.7145   -0.4125    0.0000 C   0  0
    0.0000   -0.8250    0.0000 C   0  0
   -2.8583   -0.8252    0.0000 C   0  0
   -3.2262   -1.5152    0.0000 C   0  0
   -3.6398   -0.8014    0.0000 C   0  0
   -4.3452   -0.3836    0.0000 C   0  0
   -4.3375    0.2764    0.0000 O   0  0
   -5.0650   -0.7877    0.0000 N   0  0
    2.1414   -2.0664    0.0000 C   0  0
    2.1414   -2.8914    0.0000 C   0  0
    1.5698   -3.2214    0.0000 Cl  0  0
    2.8559   -3.3039    0.0000 C   0  0
    3.5704   -2.8915    0.0000 C   0  0
    3.5704   -2.0665    0.0000 C   0  0
    4.1420   -1.7364    0.0000 F   0  0
    2.8559   -1.6539    0.0000 C   0  0
    2.8559   -0.9939    0.0000 Cl  0  0
   -5.5381   -0.5073    0.0000 H   0  0
   -5.0714   -1.3376    0.0000 H   0  0
  1  2  1  0
  2  3  1  0
  2 20  1  0
  3  4  1  0
  4  5  2  0
  5  6  1  0
  6  7  2  0
  7  8  1  0
  8  9  2  0
  9 10  1  0
 10 11  2  0
 10 14  1  0
 11 12  1  0
 12  7  1  0
 12 13  2  0
 13  4  1  0
 14 15  1  0
 15 16  1  0
 16 14  1  0
 16 17  1  0
 17 18  2  0
 17 19  1  0
 19 29  1  0
 19 30  1  0
 20 21  2  0
 21 22  1  0
 21 23  1  0
 23 24  2  0
 24 25  1  0
 25 26  1  0
 25 27  2  0
 27 20  1  0
 27 28  1  0
M  END
> <CMPD_CHEMBLID>
CHEMBL602472

> <STANDARD_TYPE>
IC50

> <RELATION>
>

> <STANDARD_VALUE>
50000

> <STANDARD_UNITS>
nM

> <Molecular_Weight>
419.27628

$$$$

  SciTegic11272012012D

 27 30  0  0  0  0            999 V2000
   -0.2704   -2.1220    0.0000 C   0  0
    0.1713   -1.6316    0.0000 C   0  0
    0.9918   -1.7178    0.0000 N   0  0
    1.3273   -0.9642    0.0000 N   0  0
    1.9729   -0.8269    0.0000 C   0  0
    0.7145   -0.4125    0.0000 C   0  0
    0.7145    0.4125    0.0000 N   0  0
    0.0000    0.8250    0.0000 N   0  0
   -0.7145    0.4125    0.0000 C   0  0
   -1.4302    0.8237    0.0000 N   0  0
   -2.1445    0.4100    0.0000 C   0  0
   -2.8604    0.8200    0.0000 C   0  0
   -3.5735    0.4050    0.0000 C   0  0
   -3.5707   -0.4200    0.0000 C   0  0
   -2.8547   -0.8300    0.0000 C   0  0
   -2.1417   -0.4150    0.0000 C   0  0
   -4.2841   -0.8352    0.0000 S   0  0
   -4.2816   -1.4952    0.0000 O   0  0
   -3.7113   -1.1631    0.0000 O   0  0
   -5.0006   -0.4254    0.0000 N   0  0
   -5.7425   -0.7700    0.0000 C   0  0
   -6.2970   -0.1592    0.0000 C   0  0
   -5.8875    0.5570    0.0000 C   0  0
   -5.0798    0.3887    0.0000 C   0  0
   -0.7145   -0.4125    0.0000 N   0  0
    0.0000   -0.8250    0.0000 C   0  0
   -1.4312    1.3738    0.0000 H   0  0
  1  2  1  0
  2  3  2  0
  3  4  1  0
  4  5  1  0
  4  6  1  0
  6  7  2  0
  7  8  1  0
  8  9  2  0
  9 10  1  0
  9 25  1  0
 10 11  1  0
 10 27  1  0
 11 12  2  0
 12 13  1  0
 13 14  2  0
 14 15  1  0
 14 17  1  0
 15 16  2  0
 16 11  1  0
 17 18  2  0
 17 19  2  0
 17 20  1  0
 20 21  1  0
 21 22  1  0
 22 23  1  0
 23 24  1  0
 24 20  1  0
 25 26  2  0
 26  2  1  0
 26  6  1  0
M  END
> <CMPD_CHEMBLID>
CHEMBL3233061

> <STANDARD_TYPE>
IC50

> <RELATION>
>

> <STANDARD_VALUE>
50000

> <STANDARD_UNITS>
nM

> <Molecular_Weight>
373.43276

$$$$

  SciTegic11272012012D

 20 22  0  0  0  0            999 V2000
    0.6514   -5.3811    0.0000 O   0  0
    0.3922   -4.5974    0.0000 C   0  0
   -0.4154   -4.4285    0.0000 C   0  0
   -0.6729   -3.6447    0.0000 C   0  0
   -0.1229   -3.0298    0.0000 C   0  0
   -0.3790   -2.2450    0.0000 C   0  0
    0.1713   -1.6316    0.0000 C   0  0
    0.9918   -1.7178    0.0000 C   0  0
    1.3218   -2.2894    0.0000 O   0  0
    1.3273   -0.9642    0.0000 N   0  0
    0.7145   -0.4125    0.0000 C   0  0
    0.7145    0.4125    0.0000 C   0  0
    0.0000    0.8250    0.0000 C   0  0
   -0.7145    0.4125    0.0000 C   0  0
   -0.7145   -0.4125    0.0000 C   0  0
    0.0000   -0.8250    0.0000 C   0  0
    0.6847   -3.1987    0.0000 C   0  0
    0.9422   -3.9825    0.0000 C   0  0
    1.8654   -0.8498    0.0000 H   0  0
    1.1899   -5.4929    0.0000 H   0  0
  1  2  1  0
  1 20  1  0
  2  3  2  0
  3  4  1  0
  4  5  2  0
  5  6  1  0
  5 17  1  0
  6  7  2  0
  7  8  1  0
  8  9  2  0
  8 10  1  0
 10 11  1  0
 10 19  1  0
 11 12  2  0
 12 13  1  0
 13 14  2  0
 14 15  1  0
 15 16  2  0
 16  7  1  0
 16 11  1  0
 17 18  2  0
 18  2  1  0
M  END
> <CMPD_CHEMBLID>
CHEMBL103307

> <STANDARD_TYPE>
IC50

> <RELATION>
>

> <STANDARD_VALUE>
50000

> <STANDARD_UNITS>
nM

> <Molecular_Weight>
237.25334

$$$$

  SciTegic11272012012D

 28 31  0  0  0  0            999 V2000
    2.0015   -1.9807    0.0000 C   0  0
    1.4299   -1.6507    0.0000 N   0  0
    0.8584   -1.9809    0.0000 C   0  0
    1.4294   -0.8252    0.0000 S   0  0
    2.0011   -1.1550    0.0000 O   0  0
    2.0008   -0.4951    0.0000 O   0  0
    0.7145   -0.4125    0.0000 C   0  0
    0.7145    0.4125    0.0000 C   0  0
    0.0000    0.8250    0.0000 C   0  0
   -0.7145    0.4125    0.0000 C   0  0
   -1.4987    0.6674    0.0000 N   0  0
   -1.9836    0.0000    0.0000 C   0  0
   -2.6436    0.0000    0.0000 O   0  0
   -1.4987   -0.6674    0.0000 C   0  0
   -1.7547   -1.4507    0.0000 C   0  0
   -2.5624   -1.6213    0.0000 C   0  0
   -3.1619   -1.0648    0.0000 C   0  0
   -3.8773   -1.4748    0.0000 C   0  0
   -4.6611   -1.2173    0.0000 C   0  0
   -5.2760   -1.7673    0.0000 C   0  0
   -5.1072   -2.5749    0.0000 C   0  0
   -4.3233   -2.8324    0.0000 C   0  0
   -3.7084   -2.2824    0.0000 C   0  0
   -2.8887   -2.3714    0.0000 N   0  0
   -0.7145   -0.4125    0.0000 C   0  0
    0.0000   -0.8250    0.0000 C   0  0
   -2.6124   -2.8471    0.0000 H   0  0
   -1.6686    1.1906    0.0000 H   0  0
  1  2  1  0
  2  3  1  0
  2  4  1  0
  4  5  2  0
  4  6  2  0
  4  7  1  0
  7  8  2  0
  8  9  1  0
  9 10  2  0
 10 11  1  0
 11 12  1  0
 11 28  1  0
 12 13  2  0
 12 14  1  0
 14 15  2  0
 14 25  1  0
 15 16  1  0
 16 17  2  0
 17 18  1  0
 18 19  1  0
 19 20  1  0
 20 21  1  0
 21 22  1  0
 22 23  1  0
 23 18  2  0
 23 24  1  0
 24 16  1  0
 24 27  1  0
 25 10  1  0
 25 26  2  0
 26  7  1  0
M  END
> <CMPD_CHEMBLID>
CHEMBL605003

> <STANDARD_TYPE>
IC50

> <RELATION>
>

> <STANDARD_VALUE>
50000

> <STANDARD_UNITS>
nM

> <Molecular_Weight>
371.45334

$$$$

  SciTegic11272012012D

 35 40  0  0  0  0            999 V2000
    2.0013   -0.4930    0.0000 C   0  0
    1.4302   -0.8237    0.0000 C   0  0
    0.7145   -0.4125    0.0000 C   0  0
    0.7145    0.4125    0.0000 C   0  0
    0.0000    0.8250    0.0000 C   0  0
    0.0000    1.6500    0.0000 C   0  0
    0.5716    1.9800    0.0000 O   0  0
   -0.7145    2.0625    0.0000 C   0  0
   -1.4290    1.6500    0.0000 C   0  0
   -2.0418    2.2016    0.0000 N   0  0
   -1.7063    2.9554    0.0000 C   0  0
   -2.0420    3.7083    0.0000 C   0  0
   -1.5570    4.3758    0.0000 C   0  0
   -0.7365    4.2896    0.0000 C   0  0
   -0.4010    3.5359    0.0000 C   0  0
   -0.8858    2.8691    0.0000 C   0  0
   -1.8927    5.1299    0.0000 C   0  0
   -2.1612    5.7328    0.0000 N   0  0
   -1.4290    0.8250    0.0000 C   0  0
   -1.9926    1.1684    0.0000 C   0  0
   -1.4135    0.1652    0.0000 C   0  0
   -0.7145    0.4125    0.0000 C   0  0
   -0.7145   -0.4125    0.0000 C   0  0
    0.0000   -0.8250    0.0000 C   0  0
    0.0000   -1.6505    0.0000 N   0  0
   -0.7138   -2.0641    0.0000 C   0  0
   -0.7125   -2.8891    0.0000 C   0  0
    0.0026   -3.3005    0.0000 N   0  0
    0.7164   -2.8869    0.0000 C   0  0
    0.7151   -2.0619    0.0000 C   0  0
    0.0040   -4.1259    0.0000 C   0  0
   -0.5777   -4.6828    0.0000 C   0  0
    0.0075   -5.2643    0.0000 O   0  0
    0.5891   -4.6790    0.0000 C   0  0
   -2.5798    2.0872    0.0000 H   0  0
  1  2  1  0
  2  3  1  0
  3  4  2  0
  4  5  1  0
  5  6  1  0
  6  7  2  0
  6  8  1  0
  8  9  2  0
  9 10  1  0
  9 19  1  0
 10 11  1  0
 10 35  1  0
 11 12  2  0
 12 13  1  0
 13 14  2  0
 13 17  1  0
 14 15  1  0
 15 16  2  0
 16  8  1  0
 16 11  1  0
 17 18  3  0
 19 20  1  0
 19 21  1  0
 19 22  1  0
 22  5  2  0
 22 23  1  0
 23 24  2  0
 24  3  1  0
 24 25  1  0
 25 26  1  0
 26 27  1  0
 27 28  1  0
 28 29  1  0
 28 31  1  0
 29 30  1  0
 30 25  1  0
 31 32  1  0
 32 33  1  0
 33 34  1  0
 34 31  1  0
M  END
> <CMPD_CHEMBLID>
CHEMBL1823221

> <STANDARD_TYPE>
IC50

> <RELATION>
>

> <STANDARD_VALUE>
50000

> <STANDARD_UNITS>
nM

> <Molecular_Weight>
454.5634

$$$$

  SciTegic11272012012D

 35 39  0  0  0  0            999 V2000
    2.8458   -6.4379    0.0000 F   0  0
    2.8464   -5.7779    0.0000 C   0  0
    3.4185   -5.4486    0.0000 F   0  0
    3.4176   -6.1086    0.0000 F   0  0
    2.1322   -5.3640    0.0000 C   0  0
    1.4171   -5.7754    0.0000 C   0  0
    0.7033   -5.3617    0.0000 C   0  0
    0.7046   -4.5367    0.0000 C   0  0
    1.4198   -4.1253    0.0000 C   0  0
    2.1336   -4.5390    0.0000 C   0  0
    1.4227   -3.2999    0.0000 C   0  0
    0.8523   -2.9680    0.0000 O   0  0
    2.1388   -2.8893    0.0000 N   0  0
    2.1419   -2.0639    0.0000 C   0  0
    2.8570   -1.6525    0.0000 C   0  0
    2.8583   -0.8275    0.0000 C   0  0
    2.1445   -0.4139    0.0000 C   0  0
    1.4293   -0.8252    0.0000 C   0  0
    1.4281   -1.6502    0.0000 C   0  0
    0.7144   -0.4125    0.0000 C   0  0
    0.7144    0.4125    0.0000 C   0  0
    0.0000    0.8250    0.0000 C   0  0
   -0.7144    0.4125    0.0000 N   0  0
   -0.7144   -0.4125    0.0000 C   0  0
   -1.3273   -0.9641    0.0000 C   0  0
   -0.9918   -1.7178    0.0000 C   0  0
   -0.1713   -1.6316    0.0000 N   0  0
    0.0000   -0.8250    0.0000 N   0  0
   -1.4045   -2.4326    0.0000 C   0  0
   -2.2244   -2.4940    0.0000 C   0  0
   -2.5820   -3.2375    0.0000 C   0  0
   -2.1169   -3.9189    0.0000 N   0  0
   -1.2943   -3.8568    0.0000 C   0  0
   -0.9367   -3.1133    0.0000 C   0  0
    2.6143   -3.1659    0.0000 H   0  0
  1  2  1  0
  2  3  1  0
  2  4  1  0
  2  5  1  0
  5  6  2  0
  6  7  1  0
  7  8  2  0
  8  9  1  0
  9 10  2  0
  9 11  1  0
 10  5  1  0
 11 12  2  0
 11 13  1  0
 13 14  1  0
 13 35  1  0
 14 15  2  0
 15 16  1  0
 16 17  2  0
 17 18  1  0
 18 19  2  0
 18 20  1  0
 19 14  1  0
 20 21  2  0
 21 22  1  0
 22 23  2  0
 23 24  1  0
 24 25  2  0
 25 26  1  0
 26 27  2  0
 26 29  1  0
 27 28  1  0
 28 20  1  0
 28 24  1  0
 29 30  2  0
 30 31  1  0
 31 32  2  0
 32 33  1  0
 33 34  2  0
 34 29  1  0
M  END
> <CMPD_CHEMBLID>
CHEMBL1089082

> <STANDARD_TYPE>
IC50

> <RELATION>
>

> <STANDARD_VALUE>
50000

> <STANDARD_UNITS>
nM

> <Molecular_Weight>
459.42265

$$$$

  SciTegic11272012012D

 28 29  0  0  0  0            999 V2000
    2.0013   -0.4930    0.0000 C   0  0
    1.4302   -0.8237    0.0000 O   0  0
    0.7144   -0.4125    0.0000 C   0  0
    0.7144    0.4125    0.0000 C   0  0
    0.0000    0.8250    0.0000 C   0  0
   -0.7144    0.4125    0.0000 C   0  0
   -0.7144   -0.4125    0.0000 C   0  0
    0.0000   -0.8250    0.0000 C   0  0
   -0.0017   -1.6504    0.0000 C   0  0
   -0.7171   -2.0622    0.0000 C   0  0
   -0.7188   -2.8876    0.0000 C   0  0
   -1.4333   -3.3002    0.0000 C   0  0
   -1.4333   -4.1252    0.0000 C   0  0
   -0.7188   -4.5377    0.0000 C   0  0
   -0.7188   -5.1977    0.0000 Cl  0  0
   -0.0044   -4.1252    0.0000 C   0  0
   -0.0043   -3.3002    0.0000 C   0  0
   -1.4302    0.8237    0.0000 C   0  0
   -1.4313    1.4837    0.0000 O   0  0
   -2.1444    0.4100    0.0000 N   0  0
   -2.8602    0.8213    0.0000 C   0  0
   -3.5744    0.4075    0.0000 C   0  0
   -3.5747   -0.4179    0.0000 O   0  0
   -4.2902    0.8188    0.0000 C   0  0
   -5.0044    0.4050    0.0000 O   0  0
   -5.4813    0.6790    0.0000 H   0  0
   -4.0509   -0.6931    0.0000 H   0  0
   -2.1435   -0.1400    0.0000 H   0  0
  1  2  1  0
  2  3  1  0
  3  4  2  0
  4  5  1  0
  5  6  2  0
  6  7  1  0
  6 18  1  0
  7  8  2  0
  8  3  1  0
  8  9  1  0
  9 10  2  0
 10 11  1  0
 11 12  2  0
 12 13  1  0
 13 14  2  0
 14 15  1  0
 14 16  1  0
 16 17  2  0
 17 11  1  0
 18 19  2  0
 18 20  1  0
 20 21  1  0
 20 28  1  0
 21 22  1  0
 22 23  1  0
 22 24  1  0
 23 27  1  0
 24 25  1  0
 25 26  1  0
M  END
> <CMPD_CHEMBLID>
CHEMBL1949788

> <STANDARD_TYPE>
IC50

> <RELATION>
>

> <STANDARD_VALUE>
50000

> <STANDARD_UNITS>
nM

> <Molecular_Weight>
361.8194

$$$$

  SciTegic11272012012D

 29 31  0  0  0  0            999 V2000
    3.4278   -0.4977    0.0000 C   0  0
    2.8563   -0.8279    0.0000 N   0  0
    2.2848   -0.4979    0.0000 C   0  0
    2.8561   -1.6534    0.0000 C   0  0
    2.1413   -2.0663    0.0000 C   0  0
    1.4273   -1.6521    0.0000 C   0  0
    1.4285   -0.8267    0.0000 S   0  0
    0.7144   -0.4125    0.0000 C   0  0
    0.7144    0.4125    0.0000 C   0  0
    0.0000    0.8250    0.0000 C   0  0
   -0.7144    0.4125    0.0000 C   0  0
   -0.7144   -0.4125    0.0000 C   0  0
    0.0000   -0.8250    0.0000 C   0  0
    2.1402   -2.8918    0.0000 C   0  0
    1.5680   -3.2208    0.0000 O   0  0
    2.8542   -3.3060    0.0000 C   0  0
    2.8542   -4.1310    0.0000 C   0  0
    3.5687   -4.5435    0.0000 C   0  0
    4.2831   -4.1310    0.0000 C   0  0
    4.9988   -4.5423    0.0000 O   0  0
    5.7131   -4.1286    0.0000 C   0  0
    6.4288   -4.5399    0.0000 C   0  0
    7.1433   -4.1274    0.0000 C   0  0
    7.8578   -4.5399    0.0000 C   0  0
    7.8578   -5.3649    0.0000 C   0  0
    7.1433   -5.7774    0.0000 C   0  0
    6.4289   -5.3649    0.0000 C   0  0
    4.2832   -3.3060    0.0000 C   0  0
    3.5687   -2.8935    0.0000 C   0  0
  1  2  1  0
  2  3  1  0
  2  4  1  0
  4  5  1  0
  5  6  1  0
  5 14  1  0
  6  7  1  0
  7  8  1  0
  8  9  2  0
  9 10  1  0
 10 11  2  0
 11 12  1  0
 12 13  2  0
 13  8  1  0
 14 15  2  0
 14 16  1  0
 16 17  2  0
 17 18  1  0
 18 19  2  0
 19 20  1  0
 19 28  1  0
 20 21  1  0
 21 22  1  0
 22 23  2  0
 23 24  1  0
 24 25  2  0
 25 26  1  0
 26 27  2  0
 27 22  1  0
 28 29  2  0
 29 16  1  0
M  END
> <CMPD_CHEMBLID>
CHEMBL540292

> <STANDARD_TYPE>
IC50

> <RELATION>
>

> <STANDARD_VALUE>
50000

> <STANDARD_UNITS>
nM

> <Molecular_Weight>
405.55238

$$$$

  SciTegic11272012012D

 24 25  0  0  0  0            999 V2000
    2.7111   -3.2230    0.0000 C   0  0
    2.1402   -2.8918    0.0000 N   0  0
    1.5680   -3.2208    0.0000 C   0  0
    2.1413   -2.0663    0.0000 C   0  0
    1.4273   -1.6521    0.0000 C   0  0
    0.8551   -1.9812    0.0000 C   0  0
    1.4285   -0.8267    0.0000 C   0  0
    2.0006   -0.4977    0.0000 O   0  0
    0.7144   -0.4125    0.0000 C   0  0
    0.7144    0.4125    0.0000 C   0  0
    0.0000    0.8250    0.0000 C   0  0
   -0.7144    0.4125    0.0000 C   0  0
   -1.4285    0.8267    0.0000 O   0  0
   -1.4273    1.6521    0.0000 C   0  0
   -2.1413    2.0663    0.0000 C   0  0
   -2.1414    2.8913    0.0000 C   0  0
   -2.8558    3.3038    0.0000 C   0  0
   -3.5703    2.8914    0.0000 C   0  0
   -3.5703    2.0664    0.0000 C   0  0
   -2.8559    1.6538    0.0000 C   0  0
   -0.7144   -0.4125    0.0000 C   0  0
   -1.4285   -0.8267    0.0000 O   0  0
    0.0000   -0.8250    0.0000 C   0  0
   -1.4277   -1.3767    0.0000 H   0  0
  1  2  1  0
  2  3  1  0
  2  4  1  0
  4  5  1  0
  5  6  2  0
  5  7  1  0
  7  8  2  0
  7  9  1  0
  9 10  2  0
 10 11  1  0
 11 12  2  0
 12 13  1  0
 12 21  1  0
 13 14  1  0
 14 15  1  0
 15 16  2  0
 16 17  1  0
 17 18  2  0
 18 19  1  0
 19 20  2  0
 20 15  1  0
 21 22  1  0
 21 23  2  0
 22 24  1  0
 23  9  1  0
M  END
> <CMPD_CHEMBLID>
CHEMBL542887

> <STANDARD_TYPE>
IC50

> <RELATION>
>

> <STANDARD_VALUE>
50000

> <STANDARD_UNITS>
nM

> <Molecular_Weight>
311.37494

$$$$

  SciTegic11272012012D

 22 24  0  0  0  0            999 V2000
    0.8551   -1.9812    0.0000 C   0  0
    1.4273   -1.6521    0.0000 C   0  0
    1.4285   -0.8267    0.0000 O   0  0
    0.7144   -0.4125    0.0000 C   0  0
    0.7144    0.4125    0.0000 C   0  0
    0.0000    0.8250    0.0000 C   0  0
   -0.7144    0.4125    0.0000 C   0  0
   -1.4290    0.8250    0.0000 N   0  0
   -2.1434    0.4125    0.0000 C   0  0
   -2.1434   -0.4125    0.0000 C   0  0
   -1.4290   -0.8250    0.0000 C   0  0
   -0.7144   -0.4125    0.0000 C   0  0
    0.0000   -0.8250    0.0000 C   0  0
    2.1413   -2.0663    0.0000 C   0  0
    2.1414   -2.8913    0.0000 C   0  0
    1.5698   -3.2214    0.0000 Cl  0  0
    2.8558   -3.3038    0.0000 C   0  0
    3.5703   -2.8914    0.0000 C   0  0
    3.5703   -2.0664    0.0000 C   0  0
    4.1419   -1.7364    0.0000 F   0  0
    2.8559   -1.6539    0.0000 C   0  0
    2.8559   -0.9938    0.0000 Cl  0  0
  1  2  1  0
  2  3  1  0
  2 14  1  0
  3  4  1  0
  4  5  2  0
  5  6  1  0
  6  7  2  0
  7  8  1  0
  8  9  2  0
  9 10  1  0
 10 11  2  0
 11 12  1  0
 12  7  1  0
 12 13  2  0
 13  4  1  0
 14 15  2  0
 15 16  1  0
 15 17  1  0
 17 18  2  0
 18 19  1  0
 19 20  1  0
 19 21  2  0
 21 14  1  0
 21 22  1  0
M  END
> <CMPD_CHEMBLID>
CHEMBL600795

> <STANDARD_TYPE>
IC50

> <RELATION>
>

> <STANDARD_VALUE>
50000

> <STANDARD_UNITS>
nM

> <Molecular_Weight>
336.18768

$$$$

  SciTegic11272012012D

 34 38  0  0  0  0            999 V2000
   -3.4428   -4.1722    0.0000 C   0  0
   -2.9646   -3.7174    0.0000 O   0  0
   -2.1727   -3.9505    0.0000 C   0  0
   -2.0178   -4.5921    0.0000 O   0  0
   -1.5745   -3.3817    0.0000 N   0  0
   -0.7828   -3.6135    0.0000 C   0  0
   -0.1861   -3.0438    0.0000 C   0  0
   -0.3810   -2.2449    0.0000 C   0  0
   -1.1730   -2.0103    0.0000 C   0  0
   -1.7696   -2.5800    0.0000 C   0  0
    0.1713   -1.6316    0.0000 N   0  0
    0.9918   -1.7178    0.0000 N   0  0
    1.3273   -0.9641    0.0000 C   0  0
    0.7144   -0.4125    0.0000 C   0  0
    0.7144    0.4125    0.0000 C   0  0
    0.0000    0.8250    0.0000 N   0  0
   -0.7144    0.4125    0.0000 C   0  0
   -0.7144   -0.4125    0.0000 N   0  0
    0.0000   -0.8250    0.0000 C   0  0
   -1.4293    0.8252    0.0000 C   0  0
   -1.4307    1.6502    0.0000 C   0  0
   -2.1458    2.0616    0.0000 C   0  0
   -2.8596    1.6480    0.0000 C   0  0
   -3.5760    2.0581    0.0000 N   0  0
   -2.8583    0.8230    0.0000 C   0  0
   -2.1432    0.4116    0.0000 C   0  0
    1.4293    0.8252    0.0000 N   0  0
    2.1445    0.4139    0.0000 C   0  0
    2.8583    0.8275    0.0000 C   0  0
    2.8570    1.6525    0.0000 O   0  0
    2.1419    2.0639    0.0000 C   0  0
    1.4280    1.6502    0.0000 C   0  0
   -4.0515    1.7816    0.0000 H   0  0
   -3.5778    2.6081    0.0000 H   0  0
  1  2  1  0
  2  3  1  0
  3  4  2  0
  3  5  1  0
  5  6  1  0
  6  7  1  0
  7  8  1  0
  8  9  1  0
  8 11  1  0
  9 10  1  0
 10  5  1  0
 11 12  1  0
 12 13  2  0
 13 14  1  0
 14 15  2  0
 15 16  1  0
 15 27  1  0
 16 17  2  0
 17 18  1  0
 17 20  1  0
 18 19  2  0
 19 11  1  0
 19 14  1  0
 20 21  2  0
 21 22  1  0
 22 23  2  0
 23 24  1  0
 23 25  1  0
 24 33  1  0
 24 34  1  0
 25 26  2  0
 26 20  1  0
 27 28  1  0
 28 29  1  0
 29 30  1  0
 30 31  1  0
 31 32  1  0
 32 27  1  0
M  END
> <CMPD_CHEMBLID>
CHEMBL1095626

> <STANDARD_TYPE>
IC50

> <RELATION>
>

> <STANDARD_VALUE>
50000

> <STANDARD_UNITS>
nM

> <Molecular_Weight>
437.49488

$$$$

  SciTegic11272012012D

 28 29  0  0  0  0            999 V2000
    0.1408   -3.2206    0.0000 C   0  0
    0.7123   -2.8905    0.0000 N   0  0
    1.2839   -3.2205    0.0000 C   0  0
    0.7126   -2.0650    0.0000 C   0  0
    1.4273   -1.6521    0.0000 C   0  0
    2.1412   -2.0663    0.0000 C   0  0
    2.1401   -2.8917    0.0000 S   0  0
    2.8541   -3.3059    0.0000 C   0  0
    2.8529   -4.1313    0.0000 C   0  0
    3.5669   -4.5455    0.0000 N   0  0
    1.4285   -0.8267    0.0000 C   0  0
    2.0006   -0.4977    0.0000 O   0  0
    0.7144   -0.4125    0.0000 C   0  0
    0.7144    0.4125    0.0000 C   0  0
    0.0000    0.8250    0.0000 C   0  0
   -0.7144    0.4125    0.0000 C   0  0
   -1.4301    0.8237    0.0000 O   0  0
   -2.1444    0.4100    0.0000 C   0  0
   -2.8601    0.8212    0.0000 C   0  0
   -3.5745    0.4087    0.0000 C   0  0
   -4.2890    0.8212    0.0000 C   0  0
   -4.2890    1.6462    0.0000 C   0  0
   -3.5746    2.0587    0.0000 C   0  0
   -2.8601    1.6463    0.0000 C   0  0
   -0.7144   -0.4125    0.0000 C   0  0
    0.0000   -0.8250    0.0000 C   0  0
    3.5661   -5.0955    0.0000 H   0  0
    4.0437   -4.2713    0.0000 H   0  0
  1  2  1  0
  2  3  1  0
  2  4  1  0
  4  5  1  0
  5  6  1  0
  5 11  1  0
  6  7  1  0
  7  8  1  0
  8  9  1  0
  9 10  1  0
 10 27  1  0
 10 28  1  0
 11 12  2  0
 11 13  1  0
 13 14  2  0
 14 15  1  0
 15 16  2  0
 16 17  1  0
 16 25  1  0
 17 18  1  0
 18 19  1  0
 19 20  2  0
 20 21  1  0
 21 22  2  0
 22 23  1  0
 23 24  2  0
 24 19  1  0
 25 26  2  0
 26 13  1  0
M  END
> <CMPD_CHEMBLID>
CHEMBL543361

> <STANDARD_TYPE>
IC50

> <RELATION>
>

> <STANDARD_VALUE>
50000

> <STANDARD_UNITS>
nM

> <Molecular_Weight>
372.52422

$$$$

  SciTegic11272012012D

 37 41  0  0  0  0            999 V2000
   -4.1959   -4.0999    0.0000 C   0  0
   -3.5628   -4.2863    0.0000 C   0  0
   -3.4078   -4.9278    0.0000 C   0  0
   -4.0408   -4.7413    0.0000 C   0  0
   -2.9646   -3.7174    0.0000 O   0  0
   -2.1727   -3.9505    0.0000 C   0  0
   -2.0178   -4.5921    0.0000 O   0  0
   -1.5746   -3.3817    0.0000 N   0  0
   -0.7828   -3.6135    0.0000 C   0  0
   -0.1861   -3.0438    0.0000 C   0  0
   -0.3810   -2.2450    0.0000 C   0  0
   -1.1730   -2.0103    0.0000 C   0  0
   -1.7696   -2.5801    0.0000 C   0  0
    0.1713   -1.6316    0.0000 N   0  0
    0.9918   -1.7178    0.0000 N   0  0
    1.3273   -0.9642    0.0000 C   0  0
    0.7145   -0.4125    0.0000 C   0  0
    0.7145    0.4125    0.0000 C   0  0
    0.0000    0.8250    0.0000 N   0  0
   -0.7145    0.4125    0.0000 C   0  0
   -0.7145   -0.4125    0.0000 N   0  0
    0.0000   -0.8250    0.0000 C   0  0
   -1.4293    0.8252    0.0000 C   0  0
   -1.4307    1.6502    0.0000 C   0  0
   -2.1459    2.0616    0.0000 C   0  0
   -2.8597    1.6480    0.0000 C   0  0
   -3.5760    2.0581    0.0000 N   0  0
   -2.8583    0.8230    0.0000 C   0  0
   -2.1432    0.4116    0.0000 C   0  0
    1.4293    0.8252    0.0000 N   0  0
    2.1445    0.4139    0.0000 C   0  0
    2.8583    0.8275    0.0000 C   0  0
    2.8570    1.6526    0.0000 O   0  0
    2.1419    2.0639    0.0000 C   0  0
    1.4280    1.6502    0.0000 C   0  0
   -4.0515    1.7816    0.0000 H   0  0
   -3.5779    2.6081    0.0000 H   0  0
  1  2  1  0
  2  3  1  0
  2  4  1  0
  2  5  1  0
  5  6  1  0
  6  7  2  0
  6  8  1  0
  8  9  1  0
  9 10  1  0
 10 11  1  0
 11 12  1  0
 11 14  1  0
 12 13  1  0
 13  8  1  0
 14 15  1  0
 15 16  2  0
 16 17  1  0
 17 18  2  0
 18 19  1  0
 18 30  1  0
 19 20  2  0
 20 21  1  0
 20 23  1  0
 21 22  2  0
 22 14  1  0
 22 17  1  0
 23 24  2  0
 24 25  1  0
 25 26  2  0
 26 27  1  0
 26 28  1  0
 27 36  1  0
 27 37  1  0
 28 29  2  0
 29 23  1  0
 30 31  1  0
 31 32  1  0
 32 33  1  0
 33 34  1  0
 34 35  1  0
 35 30  1  0
M  END
> <CMPD_CHEMBLID>
CHEMBL1095627

> <STANDARD_TYPE>
IC50

> <RELATION>
>

> <STANDARD_VALUE>
50000

> <STANDARD_UNITS>
nM

> <Molecular_Weight>
479.57462

$$$$

  SciTegic11272012012D

 28 29  0  0  0  0            999 V2000
    2.7111   -3.2230    0.0000 C   0  0
    2.1402   -2.8918    0.0000 N   0  0
    1.5680   -3.2208    0.0000 C   0  0
    2.1413   -2.0663    0.0000 C   0  0
    1.4273   -1.6521    0.0000 C   0  0
    0.8551   -1.9812    0.0000 C   0  0
    1.4285   -0.8267    0.0000 C   0  0
    2.0006   -0.4977    0.0000 O   0  0
    0.7144   -0.4125    0.0000 C   0  0
    0.7144    0.4125    0.0000 C   0  0
    0.0000    0.8250    0.0000 C   0  0
   -0.7144    0.4125    0.0000 C   0  0
   -1.4302    0.8237    0.0000 O   0  0
   -2.1444    0.4100    0.0000 S   0  0
   -2.1433   -0.2500    0.0000 O   0  0
   -1.5723    0.0809    0.0000 O   0  0
   -2.8602    0.8213    0.0000 C   0  0
   -3.5738    0.4073    0.0000 C   0  0
   -4.2891    0.8183    0.0000 C   0  0
   -4.2908    1.6433    0.0000 C   0  0
   -3.5772    2.0573    0.0000 C   0  0
   -2.8619    1.6463    0.0000 C   0  0
   -5.0057    2.0560    0.0000 C   0  0
   -5.5772    1.7258    0.0000 O   0  0
   -5.0062    2.8815    0.0000 O   0  0
   -0.7144   -0.4125    0.0000 C   0  0
    0.0000   -0.8250    0.0000 C   0  0
   -5.4825    3.1565    0.0000 H   0  0
  1  2  1  0
  2  3  1  0
  2  4  1  0
  4  5  1  0
  5  6  2  0
  5  7  1  0
  7  8  2  0
  7  9  1  0
  9 10  2  0
 10 11  1  0
 11 12  2  0
 12 13  1  0
 12 26  1  0
 13 14  1  0
 14 15  2  0
 14 16  2  0
 14 17  1  0
 17 18  2  0
 18 19  1  0
 19 20  2  0
 20 21  1  0
 20 23  1  0
 21 22  2  0
 22 17  1  0
 23 24  2  0
 23 25  1  0
 25 28  1  0
 26 27  2  0
 27  9  1  0
M  END
> <CMPD_CHEMBLID>
CHEMBL80030

> <STANDARD_TYPE>
IC50

> <RELATION>
=

> <STANDARD_VALUE>
50000

> <STANDARD_UNITS>
nM

> <Molecular_Weight>
389.42226

$$$$

  SciTegic11272012012D

 32 35  0  0  0  0            999 V2000
   -0.5636   -3.5210    0.0000 C   0  0
   -0.1229   -3.0297    0.0000 C   0  0
   -0.3789   -2.2450    0.0000 C   0  0
    0.1713   -1.6316    0.0000 C   0  0
    0.9918   -1.7178    0.0000 N   0  0
    1.3273   -0.9641    0.0000 N   0  0
    1.9729   -0.8269    0.0000 C   0  0
    0.7144   -0.4125    0.0000 C   0  0
    0.7144    0.4125    0.0000 N   0  0
    0.0000    0.8250    0.0000 N   0  0
   -0.7144    0.4125    0.0000 C   0  0
   -0.7144   -0.4125    0.0000 N   0  0
    0.0000   -0.8250    0.0000 C   0  0
   -1.4293    0.8252    0.0000 C   0  0
   -2.1432    0.4116    0.0000 C   0  0
   -2.8583    0.8230    0.0000 C   0  0
   -2.8596    1.6480    0.0000 C   0  0
   -2.1458    2.0616    0.0000 C   0  0
   -1.4307    1.6502    0.0000 C   0  0
   -0.7173    2.0656    0.0000 O   0  0
   -0.7198    2.8910    0.0000 C   0  0
   -0.1495    3.2232    0.0000 C   0  0
   -3.5725    0.4091    0.0000 S   0  0
   -4.1445    0.7384    0.0000 O   0  0
   -3.5735    1.0691    0.0000 O   0  0
   -3.5717   -0.4163    0.0000 N   0  0
   -4.2858   -0.8295    0.0000 C   0  0
   -4.2850   -1.6545    0.0000 C   0  0
   -3.5702   -2.0663    0.0000 N   0  0
   -3.5695   -2.7263    0.0000 C   0  0
   -2.8561   -1.6532    0.0000 C   0  0
   -2.8569   -0.8282    0.0000 C   0  0
  1  2  1  0
  2  3  1  0
  3  4  1  0
  4  5  2  0
  5  6  1  0
  6  7  1  0
  6  8  1  0
  8  9  2  0
  9 10  1  0
 10 11  2  0
 11 12  1  0
 11 14  1  0
 12 13  2  0
 13  4  1  0
 13  8  1  0
 14 15  2  0
 15 16  1  0
 16 17  2  0
 16 23  1  0
 17 18  1  0
 18 19  2  0
 19 14  1  0
 19 20  1  0
 20 21  1  0
 21 22  1  0
 23 24  2  0
 23 25  2  0
 23 26  1  0
 26 27  1  0
 27 28  1  0
 28 29  1  0
 29 30  1  0
 29 31  1  0
 31 32  1  0
 32 26  1  0
M  END
> <CMPD_CHEMBLID>
CHEMBL3356722

> <STANDARD_TYPE>
IC50

> <RELATION>
>

> <STANDARD_VALUE>
50000

> <STANDARD_UNITS>
nM

> <Molecular_Weight>
459.56506

$$$$

  SciTegic11272012012D

 23 25  0  0  0  0            999 V2000
    1.1968   -4.4819    0.0000 C   0  0
    0.6616   -4.0957    0.0000 C   0  0
   -0.1222   -4.3533    0.0000 C   0  0
   -0.6094   -3.6874    0.0000 C   0  0
   -1.2694   -3.6857    0.0000 C   0  0
   -0.1229   -3.0298    0.0000 C   0  0
   -0.3790   -2.2450    0.0000 C   0  0
    0.1713   -1.6316    0.0000 C   0  0
    0.9918   -1.7179    0.0000 C   0  0
    1.3218   -2.2894    0.0000 O   0  0
    1.3273   -0.9642    0.0000 N   0  0
    0.7145   -0.4125    0.0000 C   0  0
    0.7145    0.4125    0.0000 C   0  0
    0.0000    0.8250    0.0000 C   0  0
   -0.7145    0.4125    0.0000 C   0  0
   -1.4302    0.8238    0.0000 N   0  0
   -0.7145   -0.4125    0.0000 C   0  0
    0.0000   -0.8250    0.0000 C   0  0
    0.6589   -3.2707    0.0000 N   0  0
    1.1008   -2.9433    0.0000 H   0  0
   -1.9062    0.5481    0.0000 H   0  0
   -1.4312    1.3738    0.0000 H   0  0
    1.8654   -0.8498    0.0000 H   0  0
  1  2  1  0
  2  3  2  0
  3  4  1  0
  4  5  1  0
  4  6  2  0
  6  7  1  0
  6 19  1  0
  7  8  2  0
  8  9  1  0
  9 10  2  0
  9 11  1  0
 11 12  1  0
 11 23  1  0
 12 13  2  0
 13 14  1  0
 14 15  2  0
 15 16  1  0
 15 17  1  0
 16 21  1  0
 16 22  1  0
 17 18  2  0
 18  8  1  0
 18 12  1  0
 19  2  1  0
 19 20  1  0
M  END
> <CMPD_CHEMBLID>
CHEMBL597181

> <STANDARD_TYPE>
IC50

> <RELATION>
>

> <STANDARD_VALUE>
50000

> <STANDARD_UNITS>
nM

> <Molecular_Weight>
253.2991

$$$$

  SciTegic11272012012D

 37 41  0  0  0  0            999 V2000
    4.2792   -3.9686    0.0000 C   0  0
    4.2812   -3.3086    0.0000 O   0  0
    3.5678   -2.8933    0.0000 C   0  0
    2.9952   -3.2213    0.0000 O   0  0
    3.5703   -2.0678    0.0000 N   0  0
    2.8570   -1.6525    0.0000 C   0  0
    2.8583   -0.8275    0.0000 C   0  0
    2.1445   -0.4139    0.0000 C   0  0
    1.4293   -0.8252    0.0000 C   0  0
    1.4281   -1.6502    0.0000 C   0  0
    2.1419   -2.0639    0.0000 C   0  0
    0.7144   -0.4125    0.0000 C   0  0
    0.7144    0.4125    0.0000 N   0  0
    0.0000    0.8250    0.0000 C   0  0
    0.0000    1.6504    0.0000 N   0  0
    0.7138    2.0641    0.0000 C   0  0
    0.7125    2.8891    0.0000 C   0  0
   -0.0026    3.3005    0.0000 O   0  0
   -0.7164    2.8868    0.0000 C   0  0
   -0.7151    2.0618    0.0000 C   0  0
   -0.7144    0.4125    0.0000 C   0  0
   -1.4986    0.6674    0.0000 C   0  0
   -1.9836    0.0000    0.0000 N   0  0
   -1.4986   -0.6674    0.0000 N   0  0
   -1.7536   -1.4525    0.0000 C   0  0
   -2.5429   -1.6831    0.0000 C   0  0
   -2.7380   -2.4847    0.0000 C   0  0
   -2.1413   -3.0545    0.0000 N   0  0
   -1.3495   -2.8226    0.0000 C   0  0
   -1.1544   -2.0210    0.0000 C   0  0
   -2.3349   -3.8569    0.0000 C   0  0
   -2.9679   -4.0435    0.0000 O   0  0
   -1.7370   -4.4261    0.0000 O   0  0
   -1.8918   -5.0677    0.0000 C   0  0
   -0.7144   -0.4125    0.0000 C   0  0
    0.0000   -0.8250    0.0000 N   0  0
    4.0476   -1.7944    0.0000 H   0  0
  1  2  1  0
  2  3  1  0
  3  4  2  0
  3  5  1  0
  5  6  1  0
  5 37  1  0
  6  7  2  0
  7  8  1  0
  8  9  2  0
  9 10  1  0
  9 12  1  0
 10 11  2  0
 11  6  1  0
 12 13  2  0
 13 14  1  0
 14 15  1  0
 14 21  2  0
 15 16  1  0
 16 17  1  0
 17 18  1  0
 18 19  1  0
 19 20  1  0
 20 15  1  0
 21 22  1  0
 22 23  2  0
 23 24  1  0
 24 25  1  0
 24 35  1  0
 25 26  1  0
 26 27  1  0
 27 28  1  0
 28 29  1  0
 28 31  1  0
 29 30  1  0
 30 25  1  0
 31 32  2  0
 31 33  1  0
 33 34  1  0
 35 21  1  0
 35 36  2  0
 36 12  1  0
M  END
> <CMPD_CHEMBLID>
CHEMBL561708

> <STANDARD_TYPE>
IC50

> <RELATION>
>

> <STANDARD_VALUE>
50000

> <STANDARD_UNITS>
nM

> <Molecular_Weight>
495.53096

$$$$

  SciTegic11272012012D

 26 29  0  0  0  0            999 V2000
    2.0013   -0.4930    0.0000 C   0  0
    1.4302   -0.8237    0.0000 N   0  0
    1.4313   -1.4838    0.0000 C   0  0
    0.7145   -0.4125    0.0000 C   0  0
    0.7145    0.4125    0.0000 C   0  0
    0.0000    0.8250    0.0000 C   0  0
   -0.7145    0.4125    0.0000 C   0  0
   -1.4285    0.8267    0.0000 C   0  0
   -1.4273    1.6522    0.0000 C   0  0
   -0.7584    2.1229    0.0000 C   0  0
   -0.1326    1.9132    0.0000 O   0  0
   -1.0107    2.9083    0.0000 N   0  0
   -1.8353    2.9109    0.0000 C   0  0
   -2.3853    3.5259    0.0000 C   0  0
   -3.1928    3.3570    0.0000 C   0  0
   -3.4504    2.5732    0.0000 C   0  0
   -2.9004    1.9583    0.0000 C   0  0
   -3.1064    1.3313    0.0000 C   0  0
   -2.0928    2.1272    0.0000 C   0  0
   -0.7145   -0.4125    0.0000 C   0  0
   -1.4290   -0.8250    0.0000 C   0  0
   -1.4290   -1.6500    0.0000 C   0  0
   -0.7145   -2.0625    0.0000 C   0  0
    0.0000   -1.6500    0.0000 C   0  0
    0.0000   -0.8250    0.0000 C   0  0
   -0.6860    3.3523    0.0000 H   0  0
  1  2  1  0
  2  3  1  0
  2  4  1  0
  4  5  2  0
  5  6  1  0
  6  7  2  0
  7  8  1  0
  7 20  1  0
  8  9  2  0
  9 10  1  0
 10 11  2  0
 10 12  1  0
 12 13  1  0
 12 26  1  0
 13 14  2  0
 14 15  1  0
 15 16  2  0
 16 17  1  0
 17 18  1  0
 17 19  2  0
 19  9  1  0
 19 13  1  0
 20 21  2  0
 21 22  1  0
 22 23  2  0
 23 24  1  0
 24 25  2  0
 25  4  1  0
 25 20  1  0
M  END
> <CMPD_CHEMBLID>
CHEMBL597960

> <STANDARD_TYPE>
IC50

> <RELATION>
>

> <STANDARD_VALUE>
50000

> <STANDARD_UNITS>
nM

> <Molecular_Weight>
328.407

$$$$

  SciTegic11272012012D

 26 28  0  0  0  0            999 V2000
   -3.2726   -6.7435    0.0000 C   0  0
   -2.6272   -6.8817    0.0000 O   0  0
   -2.0735   -6.2695    0.0000 C   0  0
   -1.2666   -6.4412    0.0000 C   0  0
   -0.7145   -5.8281    0.0000 C   0  0
   -0.9692   -5.0434    0.0000 C   0  0
   -0.4180   -4.4290    0.0000 N   0  0
   -0.6741   -3.6442    0.0000 C   0  0
   -1.3199   -3.5080    0.0000 S   0  0
   -0.1229   -3.0298    0.0000 N   0  0
   -0.3790   -2.2450    0.0000 N   0  0
    0.1713   -1.6316    0.0000 C   0  0
    0.9918   -1.7178    0.0000 C   0  0
    1.3218   -2.2894    0.0000 O   0  0
    1.3273   -0.9642    0.0000 N   0  0
    0.7145   -0.4125    0.0000 C   0  0
    0.7145    0.4125    0.0000 C   0  0
    0.0000    0.8250    0.0000 C   0  0
   -0.7145    0.4125    0.0000 C   0  0
   -0.7145   -0.4125    0.0000 C   0  0
    0.0000   -0.8250    0.0000 C   0  0
   -1.7762   -4.8718    0.0000 C   0  0
   -2.3283   -5.4848    0.0000 C   0  0
    1.8653   -0.8498    0.0000 H   0  0
    0.4153   -3.1433    0.0000 H   0  0
    0.1201   -4.5425    0.0000 H   0  0
  1  2  1  0
  2  3  1  0
  3  4  2  0
  4  5  1  0
  5  6  2  0
  6  7  1  0
  6 22  1  0
  7  8  1  0
  7 26  1  0
  8  9  2  0
  8 10  1  0
 10 11  1  0
 10 25  1  0
 11 12  2  0
 12 13  1  0
 13 14  2  0
 13 15  1  0
 15 16  1  0
 15 24  1  0
 16 17  2  0
 17 18  1  0
 18 19  2  0
 19 20  1  0
 20 21  2  0
 21 12  1  0
 21 16  1  0
 22 23  2  0
 23  3  1  0
M  END
> <CMPD_CHEMBLID>
CHEMBL504574

> <STANDARD_TYPE>
IC50

> <RELATION>
>

> <STANDARD_VALUE>
50000

> <STANDARD_UNITS>
nM

> <Molecular_Weight>
326.37296

$$$$

  SciTegic11272012012D

 21 23  0  0  0  0            999 V2000
    1.4285   -0.8267    0.0000 N   0  0
    0.7145   -0.4125    0.0000 C   0  0
    0.7145    0.4125    0.0000 C   0  0
    0.0000    0.8250    0.0000 C   0  0
   -0.7145    0.4125    0.0000 C   0  0
   -1.4987    0.6674    0.0000 N   0  0
   -1.9836    0.0000    0.0000 C   0  0
   -2.6436    0.0000    0.0000 O   0  0
   -1.4987   -0.6674    0.0000 C   0  0
   -1.7548   -1.4507    0.0000 C   0  0
   -2.5624   -1.6213    0.0000 C   0  0
   -3.1620   -1.0648    0.0000 C   0  0
   -3.8778   -1.4750    0.0000 C   0  0
   -3.7089   -2.2825    0.0000 C   0  0
   -2.8887   -2.3714    0.0000 N   0  0
   -0.7145   -0.4125    0.0000 C   0  0
    0.0000   -0.8250    0.0000 C   0  0
   -2.6124   -2.8470    0.0000 H   0  0
   -1.6686    1.1906    0.0000 H   0  0
    1.4277   -1.3767    0.0000 H   0  0
    1.9054   -0.5525    0.0000 H   0  0
  1  2  1  0
  1 20  1  0
  1 21  1  0
  2  3  2  0
  3  4  1  0
  4  5  2  0
  5  6  1  0
  6  7  1  0
  6 19  1  0
  7  8  2  0
  7  9  1  0
  9 10  2  0
  9 16  1  0
 10 11  1  0
 11 12  2  0
 12 13  1  0
 13 14  2  0
 14 15  1  0
 15 11  1  0
 15 18  1  0
 16  5  1  0
 16 17  2  0
 17  2  1  0
M  END
> <CMPD_CHEMBLID>
CHEMBL232144

> <STANDARD_TYPE>
IC50

> <RELATION>
>

> <STANDARD_VALUE>
50000

> <STANDARD_UNITS>
nM

> <Molecular_Weight>
225.24594

$$$$

  SciTegic11272012012D

 29 31  0  0  0  0            999 V2000
    2.8661    1.4821    0.0000 C   0  0
    2.8636    0.8221    0.0000 C   0  0
    2.1475    0.4116    0.0000 O   0  0
    2.1445   -0.4139    0.0000 C   0  0
    2.8583   -0.8275    0.0000 C   0  0
    2.8570   -1.6525    0.0000 C   0  0
    2.1419   -2.0639    0.0000 C   0  0
    1.4281   -1.6502    0.0000 C   0  0
    1.4293   -0.8252    0.0000 C   0  0
    0.7144   -0.4125    0.0000 C   0  0
    0.7144    0.4125    0.0000 N   0  0
    0.0000    0.8250    0.0000 N   0  0
   -0.7144    0.4125    0.0000 C   0  0
   -0.7144   -0.4125    0.0000 C   0  0
    0.0000   -0.8250    0.0000 N   0  0
   -1.4986   -0.6674    0.0000 C   0  0
   -1.7025   -1.2951    0.0000 C   0  0
   -1.9836    0.0000    0.0000 N   0  0
   -1.4986    0.6674    0.0000 N   0  0
   -1.7025    1.2951    0.0000 C   0  0
    2.1405   -2.8893    0.0000 S   0  0
    1.5684   -3.2182    0.0000 O   0  0
    2.1392   -3.5493    0.0000 O   0  0
    2.8545   -3.3036    0.0000 N   0  0
    2.8532   -4.1291    0.0000 C   0  0
    3.5671   -4.5434    0.0000 C   0  0
    3.5658   -5.3688    0.0000 O   0  0
    4.0415   -5.6449    0.0000 H   0  0
    3.3313   -3.0295    0.0000 H   0  0
  1  2  1  0
  2  3  1  0
  3  4  1  0
  4  5  2  0
  5  6  1  0
  6  7  2  0
  7  8  1  0
  7 21  1  0
  8  9  2  0
  9  4  1  0
  9 10  1  0
 10 11  2  0
 11 12  1  0
 12 13  2  0
 13 14  1  0
 14 15  2  0
 14 16  1  0
 15 10  1  0
 16 17  1  0
 16 18  2  0
 18 19  1  0
 19 13  1  0
 19 20  1  0
 21 22  2  0
 21 23  2  0
 21 24  1  0
 24 25  1  0
 24 29  1  0
 25 26  1  0
 26 27  1  0
 27 28  1  0
M  END
> <CMPD_CHEMBLID>
CHEMBL3261395

> <STANDARD_TYPE>
IC50

> <RELATION>
>

> <STANDARD_VALUE>
50000

> <STANDARD_UNITS>
nM

> <Molecular_Weight>
392.4328

$$$$

  SciTegic11272012012D

 28 30  0  0  0  0            999 V2000
    2.8661    1.4822    0.0000 C   0  0
    2.8637    0.8222    0.0000 C   0  0
    2.1476    0.4116    0.0000 O   0  0
    2.1445   -0.4139    0.0000 C   0  0
    2.8583   -0.8275    0.0000 C   0  0
    2.8570   -1.6525    0.0000 C   0  0
    2.1419   -2.0639    0.0000 C   0  0
    1.4281   -1.6502    0.0000 C   0  0
    1.4293   -0.8252    0.0000 C   0  0
    0.7145   -0.4125    0.0000 C   0  0
    0.7145    0.4125    0.0000 N   0  0
    0.0000    0.8250    0.0000 N   0  0
   -0.7145    0.4125    0.0000 C   0  0
   -0.7145   -0.4125    0.0000 C   0  0
    0.0000   -0.8250    0.0000 N   0  0
   -1.4987   -0.6674    0.0000 C   0  0
   -1.7025   -1.2952    0.0000 C   0  0
   -1.9836    0.0000    0.0000 N   0  0
   -1.4987    0.6674    0.0000 N   0  0
   -1.7025    1.2952    0.0000 C   0  0
    2.1406   -2.8894    0.0000 S   0  0
    1.5684   -3.2183    0.0000 O   0  0
    2.1393   -3.5494    0.0000 O   0  0
    2.8545   -3.3037    0.0000 N   0  0
    2.8532   -4.1291    0.0000 C   0  0
    3.4241   -4.4604    0.0000 C   0  0
    3.5710   -2.8938    0.0000 C   0  0
    4.1416   -3.2257    0.0000 C   0  0
  1  2  1  0
  2  3  1  0
  3  4  1  0
  4  5  2  0
  5  6  1  0
  6  7  2  0
  7  8  1  0
  7 21  1  0
  8  9  2  0
  9  4  1  0
  9 10  1  0
 10 11  2  0
 11 12  1  0
 12 13  2  0
 13 14  1  0
 14 15  2  0
 14 16  1  0
 15 10  1  0
 16 17  1  0
 16 18  2  0
 18 19  1  0
 19 13  1  0
 19 20  1  0
 21 22  2  0
 21 23  2  0
 21 24  1  0
 24 25  1  0
 24 27  1  0
 25 26  1  0
 27 28  1  0
M  END
> <CMPD_CHEMBLID>
CHEMBL3357169

> <STANDARD_TYPE>
IC50

> <RELATION>
>

> <STANDARD_VALUE>
50000

> <STANDARD_UNITS>
nM

> <Molecular_Weight>
404.48656

$$$$

  SciTegic11272012012D

 33 36  0  0  0  0            999 V2000
    2.8660    1.4821    0.0000 C   0  0
    2.8636    0.8221    0.0000 C   0  0
    2.1475    0.4116    0.0000 O   0  0
    2.1445   -0.4139    0.0000 C   0  0
    2.8583   -0.8275    0.0000 C   0  0
    2.8570   -1.6525    0.0000 C   0  0
    2.1419   -2.0639    0.0000 C   0  0
    1.4281   -1.6502    0.0000 C   0  0
    1.4293   -0.8252    0.0000 C   0  0
    0.7144   -0.4125    0.0000 C   0  0
    0.7144    0.4125    0.0000 N   0  0
    0.0000    0.8250    0.0000 N   0  0
   -0.7144    0.4125    0.0000 C   0  0
   -0.7144   -0.4125    0.0000 C   0  0
    0.0000   -0.8250    0.0000 N   0  0
   -1.4986   -0.6674    0.0000 C   0  0
   -1.7025   -1.2951    0.0000 C   0  0
   -1.9836    0.0000    0.0000 N   0  0
   -1.4986    0.6674    0.0000 N   0  0
   -1.7025    1.2951    0.0000 C   0  0
    2.1405   -2.8893    0.0000 S   0  0
    1.5684   -3.2182    0.0000 O   0  0
    2.1392   -3.5493    0.0000 O   0  0
    2.8545   -3.3036    0.0000 N   0  0
    2.8532   -4.1291    0.0000 C   0  0
    3.5671   -4.5434    0.0000 C   0  0
    3.5658   -5.3688    0.0000 N   0  0
    4.2788   -5.7840    0.0000 C   0  0
    4.2758   -6.6090    0.0000 C   0  0
    3.5599   -7.0189    0.0000 O   0  0
    2.8469   -6.6038    0.0000 C   0  0
    2.8499   -5.7788    0.0000 C   0  0
    3.3313   -3.0295    0.0000 H   0  0
  1  2  1  0
  2  3  1  0
  3  4  1  0
  4  5  2  0
  5  6  1  0
  6  7  2  0
  7  8  1  0
  7 21  1  0
  8  9  2  0
  9  4  1  0
  9 10  1  0
 10 11  2  0
 11 12  1  0
 12 13  2  0
 13 14  1  0
 14 15  2  0
 14 16  1  0
 15 10  1  0
 16 17  1  0
 16 18  2  0
 18 19  1  0
 19 13  1  0
 19 20  1  0
 21 22  2  0
 21 23  2  0
 21 24  1  0
 24 25  1  0
 24 33  1  0
 25 26  1  0
 26 27  1  0
 27 28  1  0
 28 29  1  0
 29 30  1  0
 30 31  1  0
 31 32  1  0
 32 27  1  0
M  END
> <CMPD_CHEMBLID>
CHEMBL3261394

> <STANDARD_TYPE>
IC50

> <RELATION>
>

> <STANDARD_VALUE>
50000

> <STANDARD_UNITS>
nM

> <Molecular_Weight>
461.53788

$$$$

  SciTegic11272012012D

 34 36  0  0  0  0            999 V2000
   -2.0085   -2.9558    0.0000 C   0  0
   -1.4385   -3.2886    0.0000 N   0  0
   -0.7214   -2.8798    0.0000 S   0  0
   -0.7180   -2.2198    0.0000 O   0  0
   -1.2912   -2.5467    0.0000 O   0  0
   -0.0086   -3.2960    0.0000 N   0  0
    0.7086   -2.8872    0.0000 C   0  0
    1.4216   -3.3022    0.0000 C   0  0
    2.1375   -2.8922    0.0000 C   0  0
    2.1403   -2.0672    0.0000 C   0  0
    1.4273   -1.6521    0.0000 C   0  0
    1.4285   -0.8267    0.0000 C   0  0
    0.7144   -0.4125    0.0000 C   0  0
    0.7144    0.4125    0.0000 C   0  0
    1.2861    0.7425    0.0000 C   0  0
    0.0000    0.8250    0.0000 C   0  0
    0.0000    1.6500    0.0000 C   0  0
   -0.7145    2.0625    0.0000 C   0  0
   -0.7145    2.7225    0.0000 Cl  0  0
   -1.4290    1.6500    0.0000 C   0  0
   -2.1447    2.0612    0.0000 O   0  0
   -2.8590    1.6475    0.0000 C   0  0
   -2.8578    0.9875    0.0000 O   0  0
   -3.5747    2.0588    0.0000 N   0  0
   -4.1457    1.7279    0.0000 C   0  0
   -3.5758    2.7188    0.0000 C   0  0
   -1.4290    0.8250    0.0000 C   0  0
   -0.7144    0.4125    0.0000 C   0  0
   -0.7144   -0.4125    0.0000 O   0  0
    0.0000   -0.8250    0.0000 C   0  0
    0.0000   -1.4850    0.0000 O   0  0
    0.7114   -2.0622    0.0000 C   0  0
   -0.0114   -3.8460    0.0000 H   0  0
   -1.4414   -3.8386    0.0000 H   0  0
  1  2  1  0
  2  3  1  0
  2 34  1  0
  3  4  2  0
  3  5  2  0
  3  6  1  0
  6  7  1  0
  6 33  1  0
  7  8  2  0
  8  9  1  0
  9 10  2  0
 10 11  1  0
 11 12  1  0
 11 32  2  0
 12 13  1  0
 13 14  2  0
 14 15  1  0
 14 16  1  0
 16 17  2  0
 17 18  1  0
 18 19  1  0
 18 20  2  0
 20 21  1  0
 20 27  1  0
 21 22  1  0
 22 23  2  0
 22 24  1  0
 24 25  1  0
 24 26  1  0
 27 28  2  0
 28 16  1  0
 28 29  1  0
 29 30  1  0
 30 13  1  0
 30 31  2  0
 32  7  1  0
M  END
> <CMPD_CHEMBLID>
CHEMBL3086065

> <STANDARD_TYPE>
IC50

> <RELATION>
>

> <STANDARD_VALUE>
50000

> <STANDARD_UNITS>
nM

> <Molecular_Weight>
479.93388

$$$$

  SciTegic11272012012D

 30 32  0  0  0  0            999 V2000
    2.8661    1.4821    0.0000 C   0  0
    2.8636    0.8221    0.0000 C   0  0
    2.1475    0.4116    0.0000 O   0  0
    2.1445   -0.4139    0.0000 C   0  0
    2.8583   -0.8275    0.0000 C   0  0
    2.8570   -1.6525    0.0000 C   0  0
    2.1419   -2.0639    0.0000 C   0  0
    1.4281   -1.6502    0.0000 C   0  0
    1.4293   -0.8252    0.0000 C   0  0
    0.7144   -0.4125    0.0000 C   0  0
    0.7144    0.4125    0.0000 N   0  0
    0.0000    0.8250    0.0000 N   0  0
   -0.7144    0.4125    0.0000 C   0  0
   -0.7144   -0.4125    0.0000 C   0  0
    0.0000   -0.8250    0.0000 N   0  0
   -1.4986   -0.6674    0.0000 C   0  0
   -1.7025   -1.2951    0.0000 C   0  0
   -1.9836    0.0000    0.0000 N   0  0
   -1.4986    0.6674    0.0000 N   0  0
   -1.7025    1.2951    0.0000 C   0  0
    2.1405   -2.8893    0.0000 S   0  0
    1.5684   -3.2182    0.0000 O   0  0
    2.1392   -3.5493    0.0000 O   0  0
    2.8545   -3.3036    0.0000 N   0  0
    2.8532   -4.1291    0.0000 C   0  0
    3.5671   -4.5434    0.0000 C   0  0
    3.5658   -5.3688    0.0000 N   0  0
    4.0415   -5.6449    0.0000 H   0  0
    3.0890   -5.6429    0.0000 H   0  0
    3.3313   -3.0295    0.0000 H   0  0
  1  2  1  0
  2  3  1  0
  3  4  1  0
  4  5  2  0
  5  6  1  0
  6  7  2  0
  7  8  1  0
  7 21  1  0
  8  9  2  0
  9  4  1  0
  9 10  1  0
 10 11  2  0
 11 12  1  0
 12 13  2  0
 13 14  1  0
 14 15  2  0
 14 16  1  0
 15 10  1  0
 16 17  1  0
 16 18  2  0
 18 19  1  0
 19 13  1  0
 19 20  1  0
 21 22  2  0
 21 23  2  0
 21 24  1  0
 24 25  1  0
 24 30  1  0
 25 26  1  0
 26 27  1  0
 27 28  1  0
 27 29  1  0
M  END
> <CMPD_CHEMBLID>
CHEMBL3261393

> <STANDARD_TYPE>
IC50

> <RELATION>
>

> <STANDARD_VALUE>
50000

> <STANDARD_UNITS>
nM

> <Molecular_Weight>
391.44804

$$$$

  SciTegic11272012012D

 30 31  0  0  0  0            999 V2000
    2.7111   -3.2230    0.0000 C   0  0
    2.1402   -2.8918    0.0000 N   0  0
    1.5680   -3.2208    0.0000 C   0  0
    2.1413   -2.0663    0.0000 C   0  0
    1.4273   -1.6521    0.0000 C   0  0
    0.8551   -1.9812    0.0000 C   0  0
    1.4285   -0.8267    0.0000 C   0  0
    2.0006   -0.4977    0.0000 O   0  0
    0.7144   -0.4125    0.0000 C   0  0
    0.7144    0.4125    0.0000 C   0  0
    0.0000    0.8250    0.0000 C   0  0
   -0.7144    0.4125    0.0000 C   0  0
   -1.4302    0.8237    0.0000 O   0  0
   -2.1444    0.4100    0.0000 S   0  0
   -2.1433   -0.2500    0.0000 O   0  0
   -1.5723    0.0809    0.0000 O   0  0
   -2.8602    0.8213    0.0000 C   0  0
   -3.5738    0.4073    0.0000 C   0  0
   -4.2891    0.8183    0.0000 C   0  0
   -4.2908    1.6433    0.0000 C   0  0
   -5.0074    2.0531    0.0000 C   0  0
   -5.0099    2.7131    0.0000 O   0  0
   -5.7208    1.6379    0.0000 O   0  0
   -3.5772    2.0573    0.0000 C   0  0
   -3.5772    2.8827    0.0000 O   0  0
   -2.8619    1.6463    0.0000 C   0  0
   -0.7144   -0.4125    0.0000 C   0  0
    0.0000   -0.8250    0.0000 C   0  0
   -3.1011    3.1580    0.0000 H   0  0
   -6.1982    1.9109    0.0000 H   0  0
  1  2  1  0
  2  3  1  0
  2  4  1  0
  4  5  1  0
  5  6  2  0
  5  7  1  0
  7  8  2  0
  7  9  1  0
  9 10  2  0
 10 11  1  0
 11 12  2  0
 12 13  1  0
 12 27  1  0
 13 14  1  0
 14 15  2  0
 14 16  2  0
 14 17  1  0
 17 18  2  0
 18 19  1  0
 19 20  2  0
 20 21  1  0
 20 24  1  0
 21 22  2  0
 21 23  1  0
 23 30  1  0
 24 25  1  0
 24 26  2  0
 25 29  1  0
 26 17  1  0
 27 28  2  0
 28  9  1  0
M  END
> <CMPD_CHEMBLID>
CHEMBL310580

> <STANDARD_TYPE>
IC50

> <RELATION>
>

> <STANDARD_VALUE>
50000

> <STANDARD_UNITS>
nM

> <Molecular_Weight>
405.42166

$$$$

  SciTegic11272012012D

 21 23  0  0  0  0            999 V2000
   -0.1742   -2.8725    0.0000 C   0  0
   -0.3790   -2.2450    0.0000 C   0  0
   -1.0247   -2.1088    0.0000 C   0  0
    0.1713   -1.6316    0.0000 N   0  0
    0.9918   -1.7179    0.0000 N   0  0
    1.3273   -0.9642    0.0000 C   0  0
    2.1348   -0.7925    0.0000 C   0  0
    2.7291   -1.3607    0.0000 C   0  0
    3.5209   -1.1288    0.0000 N   0  0
    3.7159   -0.3272    0.0000 C   0  0
    3.1193    0.2426    0.0000 N   0  0
    2.3275    0.0107    0.0000 C   0  0
    0.7145   -0.4125    0.0000 C   0  0
    0.7145    0.4125    0.0000 C   0  0
    1.4285    0.8267    0.0000 N   0  0
    0.0000    0.8250    0.0000 N   0  0
   -0.7145    0.4125    0.0000 C   0  0
   -0.7145   -0.4125    0.0000 N   0  0
    0.0000   -0.8250    0.0000 C   0  0
    1.4277    1.3767    0.0000 H   0  0
    1.9053    0.5525    0.0000 H   0  0
  1  2  1  0
  2  3  1  0
  2  4  1  0
  4  5  1  0
  5  6  2  0
  6  7  1  0
  6 13  1  0
  7  8  2  0
  8  9  1  0
  9 10  2  0
 10 11  1  0
 11 12  2  0
 12  7  1  0
 13 14  2  0
 14 15  1  0
 14 16  1  0
 15 20  1  0
 15 21  1  0
 16 17  2  0
 17 18  1  0
 18 19  2  0
 19  4  1  0
 19 13  1  0
M  END
> <CMPD_CHEMBLID>
CHEMBL1241391

> <STANDARD_TYPE>
IC50

> <RELATION>
=

> <STANDARD_VALUE>
50000

> <STANDARD_UNITS>
nM

> <Molecular_Weight>
255.27852

$$$$

  SciTegic11272012012D

 29 32  0  0  0  0            999 V2000
    4.1277   -5.7065    0.0000 C   0  0
    3.5575   -5.3741    0.0000 N   0  0
    2.8413   -5.7837    0.0000 C   0  0
    2.1286   -5.3683    0.0000 C   0  0
    2.1319   -4.5433    0.0000 N   0  0
    2.8481   -4.1337    0.0000 C   0  0
    3.5609   -4.5492    0.0000 C   0  0
    1.4187   -4.1276    0.0000 S   0  0
    0.8460   -4.4555    0.0000 O   0  0
    1.4161   -4.7876    0.0000 O   0  0
    1.4216   -3.3022    0.0000 C   0  0
    2.1375   -2.8922    0.0000 C   0  0
    2.1403   -2.0672    0.0000 C   0  0
    1.4273   -1.6521    0.0000 C   0  0
    1.4285   -0.8267    0.0000 N   0  0
    0.7144   -0.4125    0.0000 C   0  0
    0.7144    0.4125    0.0000 N   0  0
    0.0000    0.8250    0.0000 N   0  0
   -0.7144    0.4125    0.0000 C   0  0
   -0.7144   -0.4125    0.0000 C   0  0
    0.0000   -0.8250    0.0000 N   0  0
   -1.4986   -0.6674    0.0000 C   0  0
   -1.7025   -1.2951    0.0000 C   0  0
   -1.9836    0.0000    0.0000 N   0  0
   -1.4986    0.6674    0.0000 N   0  0
   -1.7025    1.2951    0.0000 C   0  0
    0.7114   -2.0622    0.0000 C   0  0
    0.7086   -2.8872    0.0000 C   0  0
    1.9053   -0.5525    0.0000 H   0  0
  1  2  1  0
  2  3  1  0
  3  4  1  0
  4  5  1  0
  5  6  1  0
  5  8  1  0
  6  7  1  0
  7  2  1  0
  8  9  2  0
  8 10  2  0
  8 11  1  0
 11 12  2  0
 12 13  1  0
 13 14  2  0
 14 15  1  0
 14 27  1  0
 15 16  1  0
 15 29  1  0
 16 17  2  0
 17 18  1  0
 18 19  2  0
 19 20  1  0
 20 21  2  0
 20 22  1  0
 21 16  1  0
 22 23  1  0
 22 24  2  0
 24 25  1  0
 25 19  1  0
 25 26  1  0
 27 28  2  0
 28 11  1  0
M  END
> <CMPD_CHEMBLID>
CHEMBL3237848

> <STANDARD_TYPE>
IC50

> <RELATION>
>

> <STANDARD_VALUE>
50000

> <STANDARD_UNITS>
nM

> <Molecular_Weight>
402.47398

$$$$

  SciTegic11272012012D

 31 33  0  0  0  0            999 V2000
    1.4120   -6.4402    0.0000 C   0  0
    1.4135   -5.7802    0.0000 C   0  0
    0.8426   -5.4491    0.0000 C   0  0
    2.1290   -5.3687    0.0000 C   0  0
    2.8422   -5.7844    0.0000 C   0  0
    2.8394   -6.6098    0.0000 O   0  0
    2.1319   -4.5433    0.0000 N   0  0
    1.4187   -4.1276    0.0000 S   0  0
    0.8460   -4.4555    0.0000 O   0  0
    1.4161   -4.7876    0.0000 O   0  0
    1.4216   -3.3022    0.0000 C   0  0
    2.1375   -2.8922    0.0000 C   0  0
    2.1403   -2.0672    0.0000 C   0  0
    1.4273   -1.6521    0.0000 C   0  0
    1.4285   -0.8267    0.0000 N   0  0
    0.7144   -0.4125    0.0000 C   0  0
    0.7144    0.4125    0.0000 N   0  0
    0.0000    0.8250    0.0000 N   0  0
   -0.7144    0.4125    0.0000 C   0  0
   -0.7144   -0.4125    0.0000 C   0  0
    0.0000   -0.8250    0.0000 N   0  0
   -1.4986   -0.6674    0.0000 C   0  0
   -1.7025   -1.2951    0.0000 C   0  0
   -1.9836    0.0000    0.0000 N   0  0
   -1.4986    0.6674    0.0000 N   0  0
   -1.7025    1.2951    0.0000 C   0  0
    0.7114   -2.0622    0.0000 C   0  0
    0.7086   -2.8872    0.0000 C   0  0
    1.9053   -0.5525    0.0000 H   0  0
    2.6093   -4.2701    0.0000 H   0  0
    3.3146   -6.8868    0.0000 H   0  0
  1  2  1  0
  2  3  1  0
  2  4  1  0
  4  5  1  0
  4  7  1  0
  5  6  1  0
  6 31  1  0
  7  8  1  0
  7 30  1  0
  8  9  2  0
  8 10  2  0
  8 11  1  0
 11 12  2  0
 12 13  1  0
 13 14  2  0
 14 15  1  0
 14 27  1  0
 15 16  1  0
 15 29  1  0
 16 17  2  0
 17 18  1  0
 18 19  2  0
 19 20  1  0
 20 21  2  0
 20 22  1  0
 21 16  1  0
 22 23  1  0
 22 24  2  0
 24 25  1  0
 25 19  1  0
 25 26  1  0
 27 28  2  0
 28 11  1  0
M  END
> <CMPD_CHEMBLID>
CHEMBL3237856

> <STANDARD_TYPE>
IC50

> <RELATION>
>

> <STANDARD_VALUE>
50000

> <STANDARD_UNITS>
nM

> <Molecular_Weight>
405.47462

$$$$

  SciTegic11272012012D

 28 31  0  0  0  0            999 V2000
    2.8661    1.4822    0.0000 C   0  0
    2.8637    0.8222    0.0000 C   0  0
    2.1476    0.4116    0.0000 O   0  0
    2.1445   -0.4139    0.0000 C   0  0
    2.8583   -0.8275    0.0000 C   0  0
    2.8570   -1.6525    0.0000 C   0  0
    2.1419   -2.0639    0.0000 C   0  0
    1.4281   -1.6502    0.0000 C   0  0
    1.4293   -0.8252    0.0000 C   0  0
    0.7145   -0.4125    0.0000 C   0  0
    0.7145    0.4125    0.0000 N   0  0
    0.0000    0.8250    0.0000 N   0  0
   -0.7145    0.4125    0.0000 C   0  0
   -0.7145   -0.4125    0.0000 C   0  0
    0.0000   -0.8250    0.0000 N   0  0
   -1.4987   -0.6674    0.0000 C   0  0
   -1.7025   -1.2952    0.0000 C   0  0
   -1.9836    0.0000    0.0000 N   0  0
   -1.4987    0.6674    0.0000 N   0  0
   -1.7025    1.2952    0.0000 C   0  0
    2.1406   -2.8894    0.0000 S   0  0
    1.5684   -3.2183    0.0000 O   0  0
    1.5696   -2.5584    0.0000 O   0  0
    2.8545   -3.3037    0.0000 N   0  0
    2.9285   -4.1183    0.0000 C   0  0
    3.7351   -4.2916    0.0000 C   0  0
    4.1492   -3.5781    0.0000 C   0  0
    3.5985   -2.9637    0.0000 C   0  0
  1  2  1  0
  2  3  1  0
  3  4  1  0
  4  5  2  0
  5  6  1  0
  6  7  2  0
  7  8  1  0
  7 21  1  0
  8  9  2  0
  9  4  1  0
  9 10  1  0
 10 11  2  0
 11 12  1  0
 12 13  2  0
 13 14  1  0
 14 15  2  0
 14 16  1  0
 15 10  1  0
 16 17  1  0
 16 18  2  0
 18 19  1  0
 19 13  1  0
 19 20  1  0
 21 22  2  0
 21 23  2  0
 21 24  1  0
 24 25  1  0
 25 26  1  0
 26 27  1  0
 27 28  1  0
 28 24  1  0
M  END
> <CMPD_CHEMBLID>
CHEMBL3261391

> <STANDARD_TYPE>
IC50

> <RELATION>
>

> <STANDARD_VALUE>
50000

> <STANDARD_UNITS>
nM

> <Molecular_Weight>
402.47068

$$$$

  SciTegic11272012012D

 30 33  0  0  0  0            999 V2000
    2.8661    1.4821    0.0000 C   0  0
    2.8636    0.8221    0.0000 C   0  0
    2.1475    0.4116    0.0000 O   0  0
    2.1445   -0.4139    0.0000 C   0  0
    2.8583   -0.8275    0.0000 C   0  0
    2.8570   -1.6525    0.0000 C   0  0
    2.1419   -2.0639    0.0000 C   0  0
    1.4281   -1.6502    0.0000 C   0  0
    1.4293   -0.8252    0.0000 C   0  0
    0.7144   -0.4125    0.0000 C   0  0
    0.7144    0.4125    0.0000 N   0  0
    0.0000    0.8250    0.0000 N   0  0
   -0.7144    0.4125    0.0000 C   0  0
   -0.7144   -0.4125    0.0000 C   0  0
    0.0000   -0.8250    0.0000 N   0  0
   -1.4986   -0.6674    0.0000 C   0  0
   -1.7025   -1.2951    0.0000 C   0  0
   -1.9836    0.0000    0.0000 N   0  0
   -1.4986    0.6674    0.0000 N   0  0
   -1.7025    1.2951    0.0000 C   0  0
    2.1405   -2.8893    0.0000 S   0  0
    1.5684   -3.2182    0.0000 O   0  0
    1.5695   -2.5583    0.0000 O   0  0
    2.8545   -3.3036    0.0000 N   0  0
    2.8527   -4.1286    0.0000 C   0  0
    3.5663   -4.5427    0.0000 C   0  0
    4.2816   -4.1318    0.0000 N   0  0
    4.8524   -4.4631    0.0000 C   0  0
    4.2835   -3.3068    0.0000 C   0  0
    3.5699   -2.8927    0.0000 C   0  0
  1  2  1  0
  2  3  1  0
  3  4  1  0
  4  5  2  0
  5  6  1  0
  6  7  2  0
  7  8  1  0
  7 21  1  0
  8  9  2  0
  9  4  1  0
  9 10  1  0
 10 11  2  0
 11 12  1  0
 12 13  2  0
 13 14  1  0
 14 15  2  0
 14 16  1  0
 15 10  1  0
 16 17  1  0
 16 18  2  0
 18 19  1  0
 19 13  1  0
 19 20  1  0
 21 22  2  0
 21 23  2  0
 21 24  1  0
 24 25  1  0
 25 26  1  0
 26 27  1  0
 27 28  1  0
 27 29  1  0
 29 30  1  0
 30 24  1  0
M  END
> <CMPD_CHEMBLID>
CHEMBL3261387

> <STANDARD_TYPE>
IC50

> <RELATION>
>

> <STANDARD_VALUE>
50000

> <STANDARD_UNITS>
nM

> <Molecular_Weight>
431.5119

$$$$

  SciTegic11272012012D

 27 29  0  0  0  0            999 V2000
   -0.1742   -2.8725    0.0000 C   0  0
   -0.3790   -2.2450    0.0000 C   0  0
   -1.0247   -2.1088    0.0000 C   0  0
    0.1713   -1.6316    0.0000 N   0  0
    0.9918   -1.7179    0.0000 N   0  0
    1.3273   -0.9642    0.0000 C   0  0
    2.1348   -0.7925    0.0000 C   0  0
    2.7291   -1.3607    0.0000 C   0  0
    3.5209   -1.1288    0.0000 C   0  0
    3.7159   -0.3272    0.0000 C   0  0
    4.5087   -0.0969    0.0000 C   0  0
    4.6658    0.5442    0.0000 O   0  0
    5.1048   -0.6678    0.0000 N   0  0
    3.1193    0.2426    0.0000 C   0  0
    3.2754    0.8839    0.0000 Cl  0  0
    2.3275    0.0107    0.0000 C   0  0
    0.7145   -0.4125    0.0000 C   0  0
    0.7145    0.4125    0.0000 C   0  0
    1.4285    0.8267    0.0000 N   0  0
    0.0000    0.8250    0.0000 N   0  0
   -0.7145    0.4125    0.0000 C   0  0
   -0.7145   -0.4125    0.0000 N   0  0
    0.0000   -0.8250    0.0000 C   0  0
    1.4277    1.3767    0.0000 H   0  0
    1.9053    0.5525    0.0000 H   0  0
    5.6330   -0.5143    0.0000 H   0  0
    4.9739   -1.2019    0.0000 H   0  0
  1  2  1  0
  2  3  1  0
  2  4  1  0
  4  5  1  0
  5  6  2  0
  6  7  1  0
  6 17  1  0
  7  8  2  0
  8  9  1  0
  9 10  2  0
 10 11  1  0
 10 14  1  0
 11 12  2  0
 11 13  1  0
 13 26  1  0
 13 27  1  0
 14 15  1  0
 14 16  2  0
 16  7  1  0
 17 18  2  0
 18 19  1  0
 18 20  1  0
 19 24  1  0
 19 25  1  0
 20 21  2  0
 21 22  1  0
 22 23  2  0
 23  4  1  0
 23 17  1  0
M  END
> <CMPD_CHEMBLID>
CHEMBL1241862

> <STANDARD_TYPE>
IC50

> <RELATION>
=

> <STANDARD_VALUE>
50000

> <STANDARD_UNITS>
nM

> <Molecular_Weight>
330.7722

$$$$

  SciTegic11272012012D

 23 25  0  0  0  0            999 V2000
   -0.1742   -2.8725    0.0000 C   0  0
   -0.3790   -2.2450    0.0000 C   0  0
   -1.0247   -2.1088    0.0000 C   0  0
    0.1713   -1.6316    0.0000 N   0  0
    0.9918   -1.7179    0.0000 N   0  0
    1.3273   -0.9642    0.0000 C   0  0
    2.1348   -0.7925    0.0000 C   0  0
    2.7291   -1.3607    0.0000 C   0  0
    3.5209   -1.1288    0.0000 C   0  0
    3.7159   -0.3272    0.0000 C   0  0
    3.1193    0.2426    0.0000 N   0  0
    2.3275    0.0107    0.0000 C   0  0
    4.5082   -0.0952    0.0000 C   0  0
    5.1416    0.0903    0.0000 N   0  0
    0.7145   -0.4125    0.0000 C   0  0
    0.7145    0.4125    0.0000 C   0  0
    1.4285    0.8267    0.0000 N   0  0
    0.0000    0.8250    0.0000 N   0  0
   -0.7145    0.4125    0.0000 C   0  0
   -0.7145   -0.4125    0.0000 N   0  0
    0.0000   -0.8250    0.0000 C   0  0
    1.4277    1.3767    0.0000 H   0  0
    1.9053    0.5525    0.0000 H   0  0
  1  2  1  0
  2  3  1  0
  2  4  1  0
  4  5  1  0
  5  6  2  0
  6  7  1  0
  6 15  1  0
  7  8  2  0
  8  9  1  0
  9 10  2  0
 10 11  1  0
 10 13  1  0
 11 12  2  0
 12  7  1  0
 13 14  3  0
 15 16  2  0
 16 17  1  0
 16 18  1  0
 17 22  1  0
 17 23  1  0
 18 19  2  0
 19 20  1  0
 20 21  2  0
 21  4  1  0
 21 15  1  0
M  END
> <CMPD_CHEMBLID>
CHEMBL1241772

> <STANDARD_TYPE>
IC50

> <RELATION>
=

> <STANDARD_VALUE>
50000

> <STANDARD_UNITS>
nM

> <Molecular_Weight>
279.29992

$$$$

  SciTegic11272012012D

 30 33  0  0  0  0            999 V2000
    2.8661    1.4821    0.0000 C   0  0
    2.8636    0.8221    0.0000 C   0  0
    2.1475    0.4116    0.0000 O   0  0
    2.1445   -0.4139    0.0000 C   0  0
    2.8583   -0.8275    0.0000 C   0  0
    2.8570   -1.6525    0.0000 C   0  0
    2.1419   -2.0639    0.0000 C   0  0
    1.4281   -1.6502    0.0000 C   0  0
    1.4293   -0.8252    0.0000 C   0  0
    0.7144   -0.4125    0.0000 C   0  0
    0.7144    0.4125    0.0000 N   0  0
    0.0000    0.8250    0.0000 N   0  0
   -0.7144    0.4125    0.0000 C   0  0
   -0.7144   -0.4125    0.0000 C   0  0
    0.0000   -0.8250    0.0000 N   0  0
   -1.4986   -0.6674    0.0000 C   0  0
   -1.7025   -1.2951    0.0000 C   0  0
   -1.9836    0.0000    0.0000 N   0  0
   -1.4986    0.6674    0.0000 N   0  0
   -1.7025    1.2951    0.0000 C   0  0
    2.1405   -2.8893    0.0000 S   0  0
    1.5684   -3.2182    0.0000 O   0  0
    1.5695   -2.5583    0.0000 O   0  0
    2.8545   -3.3036    0.0000 N   0  0
    2.8527   -4.1286    0.0000 C   0  0
    3.5663   -4.5427    0.0000 C   0  0
    4.2816   -4.1318    0.0000 N   0  0
    4.2835   -3.3068    0.0000 C   0  0
    3.5699   -2.8927    0.0000 C   0  0
    4.7573   -4.4079    0.0000 H   0  0
  1  2  1  0
  2  3  1  0
  3  4  1  0
  4  5  2  0
  5  6  1  0
  6  7  2  0
  7  8  1  0
  7 21  1  0
  8  9  2  0
  9  4  1  0
  9 10  1  0
 10 11  2  0
 11 12  1  0
 12 13  2  0
 13 14  1  0
 14 15  2  0
 14 16  1  0
 15 10  1  0
 16 17  1  0
 16 18  2  0
 18 19  1  0
 19 13  1  0
 19 20  1  0
 21 22  2  0
 21 23  2  0
 21 24  1  0
 24 25  1  0
 25 26  1  0
 26 27  1  0
 27 28  1  0
 27 30  1  0
 28 29  1  0
 29 24  1  0
M  END
> <CMPD_CHEMBLID>
CHEMBL3261388

> <STANDARD_TYPE>
IC50

> <RELATION>
>

> <STANDARD_VALUE>
50000

> <STANDARD_UNITS>
nM

> <Molecular_Weight>
417.48532

$$$$

  SciTegic11272012012D

 16 18  0  0  0  0            999 V2000
    1.7026    1.2952    0.0000 O   0  0
    1.4987    0.6674    0.0000 C   0  0
    1.9836    0.0000    0.0000 N   0  0
    1.4987   -0.6674    0.0000 C   0  0
    0.7145   -0.4125    0.0000 C   0  0
    0.7145    0.4125    0.0000 C   0  0
    0.0000    0.8250    0.0000 C   0  0
   -0.7145    0.4125    0.0000 C   0  0
   -0.7145   -0.4125    0.0000 C   0  0
    0.0000   -0.8250    0.0000 C   0  0
    0.0000   -1.6505    0.0000 C   0  0
   -0.6667   -2.1244    0.0000 C   0  0
   -0.4105   -2.9087    0.0000 C   0  0
    0.4145   -2.9074    0.0000 C   0  0
    0.6682   -2.1223    0.0000 S   0  0
    2.5336    0.0000    0.0000 H   0  0
  1  2  2  0
  2  3  1  0
  3  4  1  0
  3 16  1  0
  4  5  1  0
  5  6  2  0
  6  2  1  0
  6  7  1  0
  7  8  2  0
  8  9  1  0
  9 10  2  0
 10  5  1  0
 10 11  1  0
 11 12  2  0
 12 13  1  0
 13 14  2  0
 14 15  1  0
 15 11  1  0
M  END
> <CMPD_CHEMBLID>
CHEMBL1991782

> <STANDARD_TYPE>
Ki

> <RELATION>
>

> <STANDARD_VALUE>
50118.72

> <STANDARD_UNITS>
nM

> <Molecular_Weight>
215.27096

$$$$

  SciTegic11272012012D

 20 22  0  0  0  0            999 V2000
    3.5747   -2.7188    0.0000 F   0  0
    3.5747   -2.0588    0.0000 C   0  0
    4.2892   -1.6463    0.0000 C   0  0
    4.2892   -0.8213    0.0000 C   0  0
    3.5747   -0.4088    0.0000 C   0  0
    2.8602   -0.8213    0.0000 C   0  0
    2.1444   -0.4100    0.0000 C   0  0
    1.4302   -0.8237    0.0000 N   0  0
    0.7144   -0.4125    0.0000 C   0  0
    0.7144    0.4125    0.0000 N   0  0
    0.0000    0.8250    0.0000 C   0  0
   -0.7144    0.4125    0.0000 N   0  0
   -0.7144   -0.4125    0.0000 C   0  0
   -1.3273   -0.9641    0.0000 N   0  0
   -0.9918   -1.7178    0.0000 C   0  0
   -0.1713   -1.6316    0.0000 N   0  0
    0.0000   -0.8250    0.0000 C   0  0
    2.8602   -1.6463    0.0000 C   0  0
   -1.8653   -0.8497    0.0000 H   0  0
    1.4312   -1.3737    0.0000 H   0  0
  1  2  1  0
  2  3  2  0
  3  4  1  0
  4  5  2  0
  5  6  1  0
  6  7  1  0
  6 18  2  0
  7  8  1  0
  8  9  1  0
  8 20  1  0
  9 10  2  0
 10 11  1  0
 11 12  2  0
 12 13  1  0
 13 14  1  0
 14 15  1  0
 14 19  1  0
 15 16  2  0
 16 17  1  0
 17  9  1  0
 17 13  2  0
 18  2  1  0
M  END
> <CMPD_CHEMBLID>
CHEMBL2003785

> <STANDARD_TYPE>
Ki

> <RELATION>
=

> <STANDARD_VALUE>
50118.72

> <STANDARD_UNITS>
nM

> <Molecular_Weight>
243.2397

$$$$

  SciTegic11272012012D

 20 22  0  0  0  0            999 V2000
    3.5704   -2.0679    0.0000 N   0  0
    2.8570   -1.6525    0.0000 C   0  0
    2.8583   -0.8275    0.0000 C   0  0
    2.1445   -0.4139    0.0000 C   0  0
    1.4293   -0.8252    0.0000 C   0  0
    1.4281   -1.6502    0.0000 C   0  0
    2.1419   -2.0639    0.0000 C   0  0
    0.7145   -0.4125    0.0000 C   0  0
    0.7145    0.4125    0.0000 C   0  0
    0.0000    0.8250    0.0000 C   0  0
   -0.7145    0.4125    0.0000 C   0  0
   -0.7145   -0.4125    0.0000 N   0  0
   -1.3273   -0.9642    0.0000 C   0  0
   -1.9729   -0.8269    0.0000 O   0  0
   -0.9918   -1.7178    0.0000 N   0  0
   -0.1713   -1.6316    0.0000 N   0  0
    0.0000   -0.8250    0.0000 C   0  0
   -1.2668   -2.1941    0.0000 H   0  0
    3.5687   -2.6179    0.0000 H   0  0
    4.0476   -1.7945    0.0000 H   0  0
  1  2  1  0
  1 19  1  0
  1 20  1  0
  2  3  2  0
  3  4  1  0
  4  5  2  0
  5  6  1  0
  5  8  1  0
  6  7  2  0
  7  2  1  0
  8  9  2  0
  9 10  1  0
 10 11  2  0
 11 12  1  0
 12 13  1  0
 13 14  2  0
 13 15  1  0
 15 16  1  0
 15 18  1  0
 16 17  2  0
 17  8  1  0
 17 12  1  0
M  END
> <CMPD_CHEMBLID>
CHEMBL1975503

> <STANDARD_TYPE>
Ki

> <RELATION>
=

> <STANDARD_VALUE>
50118.72

> <STANDARD_UNITS>
nM

> <Molecular_Weight>
226.234

$$$$

  SciTegic11272012012D

 18 20  0  0  0  0            999 V2000
    2.7094   -3.2213    0.0000 C   0  0
    2.1389   -2.8893    0.0000 C   0  0
    1.5663   -3.2176    0.0000 O   0  0
    2.1419   -2.0639    0.0000 C   0  0
    2.8570   -1.6525    0.0000 C   0  0
    2.8583   -0.8275    0.0000 C   0  0
    2.1445   -0.4139    0.0000 C   0  0
    1.4293   -0.8252    0.0000 C   0  0
    1.4281   -1.6502    0.0000 C   0  0
    0.7145   -0.4125    0.0000 C   0  0
    0.7145    0.4125    0.0000 C   0  0
    0.0000    0.8250    0.0000 C   0  0
   -0.7145    0.4125    0.0000 C   0  0
   -1.4986    0.6674    0.0000 N   0  0
   -1.9836    0.0000    0.0000 C   0  0
   -1.4986   -0.6674    0.0000 C   0  0
   -0.7145   -0.4125    0.0000 N   0  0
    0.0000   -0.8250    0.0000 N   0  0
  1  2  1  0
  2  3  2  0
  2  4  1  0
  4  5  2  0
  5  6  1  0
  6  7  2  0
  7  8  1  0
  8  9  2  0
  8 10  1  0
  9  4  1  0
 10 11  1  0
 11 12  2  0
 12 13  1  0
 13 14  2  0
 14 15  1  0
 15 16  2  0
 16 17  1  0
 17 13  1  0
 17 18  1  0
 18 10  2  0
M  END
> <CMPD_CHEMBLID>
CHEMBL1994159

> <STANDARD_TYPE>
Ki

> <RELATION>
=

> <STANDARD_VALUE>
50118.72

> <STANDARD_UNITS>
nM

> <Molecular_Weight>
237.25664

$$$$

  SciTegic11272012012D

 27 29  0  0  0  0            999 V2000
   -0.1742   -2.8725    0.0000 C   0  0
   -0.3790   -2.2450    0.0000 C   0  0
   -1.0247   -2.1088    0.0000 C   0  0
    0.1713   -1.6316    0.0000 N   0  0
    0.9918   -1.7179    0.0000 N   0  0
    1.3273   -0.9642    0.0000 C   0  0
    2.1348   -0.7925    0.0000 C   0  0
    2.7291   -1.3607    0.0000 C   0  0
    3.5209   -1.1288    0.0000 C   0  0
    3.7159   -0.3272    0.0000 C   0  0
    3.1193    0.2426    0.0000 C   0  0
    2.3275    0.0107    0.0000 C   0  0
    4.5082   -0.0952    0.0000 S   0  0
    4.6640    0.5461    0.0000 O   0  0
    5.1415    0.0906    0.0000 O   0  0
    5.1055   -0.6649    0.0000 N   0  0
    0.7145   -0.4125    0.0000 C   0  0
    0.7145    0.4125    0.0000 C   0  0
    1.4285    0.8267    0.0000 N   0  0
    0.0000    0.8250    0.0000 N   0  0
   -0.7145    0.4125    0.0000 C   0  0
   -0.7145   -0.4125    0.0000 N   0  0
    0.0000   -0.8250    0.0000 C   0  0
    1.4277    1.3767    0.0000 H   0  0
    1.9053    0.5525    0.0000 H   0  0
    5.6334   -0.5104    0.0000 H   0  0
    4.9756   -1.1994    0.0000 H   0  0
  1  2  1  0
  2  3  1  0
  2  4  1  0
  4  5  1  0
  5  6  2  0
  6  7  1  0
  6 17  1  0
  7  8  2  0
  8  9  1  0
  9 10  2  0
 10 11  1  0
 10 13  1  0
 11 12  2  0
 12  7  1  0
 13 14  2  0
 13 15  2  0
 13 16  1  0
 16 26  1  0
 16 27  1  0
 17 18  2  0
 18 19  1  0
 18 20  1  0
 19 24  1  0
 19 25  1  0
 20 21  2  0
 21 22  1  0
 22 23  2  0
 23  4  1  0
 23 17  1  0
M  END
> <CMPD_CHEMBLID>
CHEMBL1242032

> <STANDARD_TYPE>
IC50

> <RELATION>
=

> <STANDARD_VALUE>
58000

> <STANDARD_UNITS>
nM

> <Molecular_Weight>
332.38084

$$$$

  SciTegic11272012012D

 24 26  0  0  0  0            999 V2000
    0.8551   -1.9812    0.0000 O   0  0
    1.4273   -1.6521    0.0000 C   0  0
    1.4285   -0.8267    0.0000 N   0  0
    0.7144   -0.4125    0.0000 C   0  0
    0.7144    0.4125    0.0000 C   0  0
    0.0000    0.8250    0.0000 C   0  0
   -0.7144    0.4125    0.0000 C   0  0
   -0.7144   -0.4125    0.0000 C   0  0
    0.0000   -0.8250    0.0000 C   0  0
    2.1413   -2.0663    0.0000 N   0  0
    2.1402   -2.8918    0.0000 C   0  0
    2.8059   -3.3670    0.0000 N   0  0
    2.5483   -4.1507    0.0000 N   0  0
    1.7233   -4.1479    0.0000 C   0  0
    1.2352   -4.8118    0.0000 C   0  0
    0.4148   -4.7215    0.0000 C   0  0
   -0.0749   -5.3855    0.0000 C   0  0
   -0.8947   -5.2936    0.0000 C   0  0
   -1.2251   -4.5376    0.0000 C   0  0
   -0.7355   -3.8736    0.0000 C   0  0
    0.0844   -3.9655    0.0000 C   0  0
    1.4711   -3.3624    0.0000 S   0  0
    2.6181   -1.7922    0.0000 H   0  0
    1.9053   -0.5525    0.0000 H   0  0
  1  2  2  0
  2  3  1  0
  2 10  1  0
  3  4  1  0
  3 24  1  0
  4  5  2  0
  5  6  1  0
  6  7  2  0
  7  8  1  0
  8  9  2  0
  9  4  1  0
 10 11  1  0
 10 23  1  0
 11 12  2  0
 12 13  1  0
 13 14  2  0
 14 15  1  0
 14 22  1  0
 15 16  1  0
 16 17  2  0
 17 18  1  0
 18 19  2  0
 19 20  1  0
 20 21  2  0
 21 16  1  0
 22 11  1  0
M  END
> <CMPD_CHEMBLID>
CHEMBL438610

> <STANDARD_TYPE>
Ki

> <RELATION>
=

> <STANDARD_VALUE>
58000

> <STANDARD_UNITS>
nM

> <Molecular_Weight>
310.37356

$$$$

  SciTegic11272012012D

 37 41  0  0  0  0            999 V2000
    0.2263   -4.5662    0.0000 C   0  0
   -0.4193   -4.4289    0.0000 C   0  0
   -0.9714   -5.0419    0.0000 C   0  0
   -1.7784   -4.8703    0.0000 C   0  0
   -2.0332   -4.0856    0.0000 C   0  0
   -1.4810   -3.4726    0.0000 C   0  0
   -0.6741   -3.6442    0.0000 C   0  0
   -0.1229   -3.0297    0.0000 C   0  0
   -0.3790   -2.2450    0.0000 C   0  0
    0.1713   -1.6316    0.0000 N   0  0
    0.9918   -1.7178    0.0000 C   0  0
    1.3273   -0.9642    0.0000 N   0  0
    0.7145   -0.4125    0.0000 C   0  0
    0.7145    0.4125    0.0000 C   0  0
    1.4285    0.8267    0.0000 N   0  0
    1.4273    1.6522    0.0000 C   0  0
    1.8375    2.3178    0.0000 C   0  0
    1.0124    2.3149    0.0000 C   0  0
    0.0000    0.8250    0.0000 N   0  0
   -0.7145    0.4125    0.0000 C   0  0
   -0.7145   -0.4125    0.0000 N   0  0
    0.0000   -0.8250    0.0000 C   0  0
   -2.8402   -3.9122    0.0000 C   0  0
   -3.2828   -4.4018    0.0000 O   0  0
   -3.0941   -3.1267    0.0000 N   0  0
   -3.9011   -2.9533    0.0000 C   0  0
   -4.1560   -2.1687    0.0000 C   0  0
   -4.9629   -1.9970    0.0000 C   0  0
   -5.5150   -2.6100    0.0000 C   0  0
   -5.2603   -3.3946    0.0000 C   0  0
   -4.4533   -3.5663    0.0000 C   0  0
   -5.8127   -4.0080    0.0000 C   0  0
   -6.4584   -3.8710    0.0000 C   0  0
   -5.6087   -4.6356    0.0000 C   0  0
   -6.2542   -4.4986    0.0000 C   0  0
   -2.7253   -2.7187    0.0000 H   0  0
    1.9053    0.5525    0.0000 H   0  0
  1  2  1  0
  2  3  2  0
  3  4  1  0
  4  5  2  0
  5  6  1  0
  5 23  1  0
  6  7  2  0
  7  2  1  0
  7  8  1  0
  8  9  2  0
  9 10  1  0
 10 11  1  0
 11 12  2  0
 12 13  1  0
 13 14  2  0
 14 15  1  0
 14 19  1  0
 15 16  1  0
 15 37  1  0
 16 17  1  0
 17 18  1  0
 18 16  1  0
 19 20  2  0
 20 21  1  0
 21 22  2  0
 22 10  1  0
 22 13  1  0
 23 24  2  0
 23 25  1  0
 25 26  1  0
 25 36  1  0
 26 27  2  0
 27 28  1  0
 28 29  2  0
 29 30  1  0
 30 31  2  0
 30 32  1  0
 31 26  1  0
 32 33  1  0
 32 34  1  0
 32 35  1  0
M  END
> <CMPD_CHEMBLID>
CHEMBL559628

> <STANDARD_TYPE>
IC50

> <RELATION>
=

> <STANDARD_VALUE>
59000

> <STANDARD_UNITS>
nM

> <Molecular_Weight>
466.5774

$$$$

  SciTegic11272012012D

 27 30  0  0  0  0            999 V2000
    2.8602   -0.8213    0.0000 N   0  0
    2.1445   -0.4100    0.0000 C   0  0
    2.1433    0.2500    0.0000 O   0  0
    1.4302   -0.8238    0.0000 N   0  0
    0.7145   -0.4125    0.0000 C   0  0
    0.7145    0.4125    0.0000 C   0  0
    0.0000    0.8250    0.0000 C   0  0
   -0.7145    0.4125    0.0000 C   0  0
   -0.7145   -0.4125    0.0000 C   0  0
   -1.3273   -0.9642    0.0000 C   0  0
   -2.1468   -1.0499    0.0000 N   0  0
   -2.3183   -1.8570    0.0000 N   0  0
   -1.6038   -2.2694    0.0000 C   0  0
   -1.5174   -3.0903    0.0000 C   0  0
   -2.0859   -3.6748    0.0000 C   0  0
   -1.6922   -4.3998    0.0000 S   0  0
   -0.8810   -4.2494    0.0000 C   0  0
   -0.4022   -4.7038    0.0000 Cl  0  0
   -0.7733   -3.4315    0.0000 C   0  0
   -0.9918   -1.7179    0.0000 C   0  0
   -0.1713   -1.6316    0.0000 C   0  0
    0.2704   -2.1221    0.0000 O   0  0
    0.0000   -0.8250    0.0000 C   0  0
   -2.5148   -0.6411    0.0000 H   0  0
    1.4312   -1.3738    0.0000 H   0  0
    3.3362   -0.5456    0.0000 H   0  0
    2.8612   -1.3713    0.0000 H   0  0
  1  2  1  0
  1 26  1  0
  1 27  1  0
  2  3  2  0
  2  4  1  0
  4  5  1  0
  4 25  1  0
  5  6  2  0
  6  7  1  0
  7  8  2  0
  8  9  1  0
  9 10  1  0
 10 11  1  0
 11 12  1  0
 11 24  1  0
 12 13  2  0
 13 14  1  0
 13 20  1  0
 14 15  2  0
 15 16  1  0
 16 17  1  0
 17 18  1  0
 17 19  2  0
 19 14  1  0
 20 10  2  0
 20 21  1  0
 21 22  2  0
 21 23  1  0
 23  5  1  0
 23  9  2  0
M  END
> <CMPD_CHEMBLID>
CHEMBL151546

> <STANDARD_TYPE>
IC50

> <RELATION>
>

> <STANDARD_VALUE>
60000

> <STANDARD_UNITS>
nM

> <Molecular_Weight>
344.77556

$$$$

  SciTegic11272012012D

 36 40  0  0  0  0            999 V2000
   -5.6067   -4.6366    0.0000 C   0  0
   -5.8114   -4.0091    0.0000 C   0  0
   -6.4572   -3.8729    0.0000 C   0  0
   -5.2603   -3.3946    0.0000 C   0  0
   -5.5150   -2.6100    0.0000 C   0  0
   -4.9629   -1.9969    0.0000 C   0  0
   -4.1560   -2.1686    0.0000 C   0  0
   -3.9011   -2.9533    0.0000 C   0  0
   -3.0941   -3.1267    0.0000 N   0  0
   -2.8402   -3.9122    0.0000 C   0  0
   -3.2828   -4.4018    0.0000 O   0  0
   -2.0332   -4.0856    0.0000 C   0  0
   -1.7784   -4.8702    0.0000 C   0  0
   -0.9714   -5.0419    0.0000 C   0  0
   -0.4193   -4.4289    0.0000 C   0  0
    0.2263   -4.5662    0.0000 C   0  0
   -0.6741   -3.6442    0.0000 C   0  0
   -0.1229   -3.0297    0.0000 C   0  0
   -0.3789   -2.2450    0.0000 C   0  0
    0.1713   -1.6316    0.0000 N   0  0
    0.9918   -1.7178    0.0000 C   0  0
    1.3273   -0.9641    0.0000 N   0  0
    0.7144   -0.4125    0.0000 C   0  0
    0.7144    0.4125    0.0000 C   0  0
    1.4285    0.8267    0.0000 N   0  0
    1.4273    1.6521    0.0000 C   0  0
    1.8374    2.3178    0.0000 C   0  0
    1.0124    2.3149    0.0000 C   0  0
    0.0000    0.8250    0.0000 N   0  0
   -0.7144    0.4125    0.0000 C   0  0
   -0.7144   -0.4125    0.0000 N   0  0
    0.0000   -0.8250    0.0000 C   0  0
   -1.4810   -3.4726    0.0000 C   0  0
   -4.4533   -3.5663    0.0000 C   0  0
    1.9053    0.5525    0.0000 H   0  0
   -2.7252   -2.7186    0.0000 H   0  0
  1  2  1  0
  2  3  1  0
  2  4  1  0
  4  5  2  0
  5  6  1  0
  6  7  2  0
  7  8  1  0
  8  9  1  0
  8 34  2  0
  9 10  1  0
  9 36  1  0
 10 11  2  0
 10 12  1  0
 12 13  2  0
 13 14  1  0
 14 15  2  0
 15 16  1  0
 15 17  1  0
 17 18  1  0
 17 33  2  0
 18 19  2  0
 19 20  1  0
 20 21  1  0
 21 22  2  0
 22 23  1  0
 23 24  2  0
 24 25  1  0
 24 29  1  0
 25 26  1  0
 25 35  1  0
 26 27  1  0
 27 28  1  0
 28 26  1  0
 29 30  2  0
 30 31  1  0
 31 32  2  0
 32 20  1  0
 32 23  1  0
 33 12  1  0
 34  4  1  0
M  END
> <CMPD_CHEMBLID>
CHEMBL559702

> <STANDARD_TYPE>
IC50

> <RELATION>
=

> <STANDARD_VALUE>
60000

> <STANDARD_UNITS>
nM

> <Molecular_Weight>
452.55082

$$$$

  SciTegic11272012012D

 29 31  0  0  0  0            999 V2000
    1.4302   -0.8237    0.0000 N   0  0
    0.7145   -0.4125    0.0000 C   0  0
    0.7145    0.4125    0.0000 N   0  0
    0.0000    0.8250    0.0000 C   0  0
    0.0017    1.6505    0.0000 S   0  0
    0.7172    2.0622    0.0000 C   0  0
    0.7189    2.8877    0.0000 C   0  0
    0.1478    3.2186    0.0000 O   0  0
    1.4343    3.2994    0.0000 C   0  0
    1.4372    4.1244    0.0000 C   0  0
    2.1531    4.5344    0.0000 C   0  0
    2.8661    4.1195    0.0000 C   0  0
    3.4389    4.4475    0.0000 Cl  0  0
    2.8633    3.2944    0.0000 C   0  0
    2.1474    2.8844    0.0000 C   0  0
   -0.7145    0.4125    0.0000 C   0  0
   -1.4294    0.8252    0.0000 C   0  0
   -2.0009    1.1552    0.0000 N   0  0
   -0.7145   -0.4125    0.0000 C   0  0
   -1.4293   -0.8252    0.0000 C   0  0
   -2.1731   -0.4848    0.0000 C   0  0
   -2.7242   -1.0988    0.0000 C   0  0
   -2.3106   -1.8127    0.0000 S   0  0
   -1.5039   -1.6398    0.0000 C   0  0
    0.0000   -0.8250    0.0000 C   0  0
    0.0000   -1.6505    0.0000 C   0  0
    0.0000   -2.3105    0.0000 N   0  0
    1.9062   -0.5481    0.0000 H   0  0
    1.4312   -1.3738    0.0000 H   0  0
  1  2  1  0
  1 28  1  0
  1 29  1  0
  2  3  2  0
  3  4  1  0
  4  5  1  0
  4 16  2  0
  5  6  1  0
  6  7  1  0
  7  8  2  0
  7  9  1  0
  9 10  2  0
 10 11  1  0
 11 12  2  0
 12 13  1  0
 12 14  1  0
 14 15  2  0
 15  9  1  0
 16 17  1  0
 16 19  1  0
 17 18  3  0
 19 20  1  0
 19 25  2  0
 20 21  1  0
 21 22  2  0
 22 23  1  0
 23 24  1  0
 24 20  2  0
 25  2  1  0
 25 26  1  0
 26 27  3  0
M  END
> <CMPD_CHEMBLID>
CHEMBL1172147

> <STANDARD_TYPE>
IC50

> <RELATION>
=

> <STANDARD_VALUE>
60000

> <STANDARD_UNITS>
nM

> <Molecular_Weight>
410.89984

$$$$

  SciTegic11272012012D

 23 25  0  0  0  0            999 V2000
    2.0006   -0.4977    0.0000 O   0  5
    1.4285   -0.8267    0.0000 N   0  3
    1.4276   -1.4867    0.0000 O   0  0
    0.7144   -0.4125    0.0000 C   0  0
    0.7144    0.4125    0.0000 C   0  0
    0.0000    0.8250    0.0000 C   0  0
   -0.7144    0.4125    0.0000 C   0  0
   -0.7144   -0.4125    0.0000 C   0  0
   -1.4285   -0.8267    0.0000 N   0  0
   -1.4273   -1.6521    0.0000 C   0  0
   -2.1403   -2.0672    0.0000 N   0  0
   -2.1375   -2.8922    0.0000 C   0  0
   -1.4216   -3.3022    0.0000 C   0  0
   -0.7086   -2.8872    0.0000 C   0  0
   -0.7114   -2.0622    0.0000 N   0  0
    0.0077   -3.2975    0.0000 C   0  0
    0.0119   -4.1225    0.0000 C   0  0
    0.7285   -4.5314    0.0000 C   0  0
    1.4408   -4.1153    0.0000 N   0  0
    1.4367   -3.2903    0.0000 C   0  0
    0.7201   -2.8814    0.0000 C   0  0
    0.0000   -0.8250    0.0000 C   0  0
   -1.9053   -0.5525    0.0000 H   0  0
  1  2  1  0
  2  3  2  0
  2  4  1  0
  4  5  2  0
  5  6  1  0
  6  7  2  0
  7  8  1  0
  8  9  1  0
  8 22  2  0
  9 10  1  0
  9 23  1  0
 10 11  2  0
 11 12  1  0
 12 13  2  0
 13 14  1  0
 14 15  2  0
 14 16  1  0
 15 10  1  0
 16 17  2  0
 17 18  1  0
 18 19  2  0
 19 20  1  0
 20 21  2  0
 21 16  1  0
 22  4  1  0
M  CHG  2   1  -1   2   1
M  END
> <CMPD_CHEMBLID>
CHEMBL55683

> <STANDARD_TYPE>
IC50

> <RELATION>
=

> <STANDARD_VALUE>
61000

> <STANDARD_UNITS>
nM

> <Molecular_Weight>
293.28014

$$$$

  SciTegic11272012012D

 39 43  0  0  0  0            999 V2000
    0.2263   -4.5662    0.0000 C   0  0
   -0.4193   -4.4289    0.0000 C   0  0
   -0.9714   -5.0419    0.0000 C   0  0
   -1.7784   -4.8702    0.0000 C   0  0
   -2.0332   -4.0855    0.0000 C   0  0
   -2.8402   -3.9121    0.0000 N   0  0
   -3.0941   -3.1267    0.0000 C   0  0
   -2.6515   -2.6371    0.0000 O   0  0
   -3.9011   -2.9533    0.0000 N   0  0
   -4.1549   -2.1678    0.0000 C   0  0
   -4.9613   -1.9934    0.0000 C   0  0
   -5.2134   -1.2078    0.0000 C   0  0
   -4.6591   -0.5967    0.0000 C   0  0
   -3.8528   -0.7712    0.0000 C   0  0
   -3.6007   -1.5567    0.0000 C   0  0
   -3.2982   -0.1597    0.0000 C   0  0
   -3.4995    0.4688    0.0000 F   0  0
   -2.6532   -0.2995    0.0000 F   0  0
   -2.8546    0.3290    0.0000 F   0  0
   -1.4810   -3.4726    0.0000 C   0  0
   -0.6741   -3.6442    0.0000 C   0  0
   -0.1229   -3.0297    0.0000 C   0  0
   -0.3789   -2.2450    0.0000 C   0  0
    0.1713   -1.6316    0.0000 N   0  0
    0.9918   -1.7178    0.0000 C   0  0
    1.3273   -0.9641    0.0000 N   0  0
    0.7144   -0.4125    0.0000 C   0  0
    0.7144    0.4125    0.0000 C   0  0
    1.4285    0.8267    0.0000 N   0  0
    1.4273    1.6521    0.0000 C   0  0
    1.8374    2.3178    0.0000 C   0  0
    1.0124    2.3149    0.0000 C   0  0
    0.0000    0.8250    0.0000 N   0  0
   -0.7144    0.4125    0.0000 C   0  0
   -0.7144   -0.4125    0.0000 N   0  0
    0.0000   -0.8250    0.0000 C   0  0
    1.9052    0.5525    0.0000 H   0  0
   -4.2699   -3.3613    0.0000 H   0  0
   -3.2090   -4.3202    0.0000 H   0  0
  1  2  1  0
  2  3  2  0
  3  4  1  0
  4  5  2  0
  5  6  1  0
  5 20  1  0
  6  7  1  0
  6 39  1  0
  7  8  2  0
  7  9  1  0
  9 10  1  0
  9 38  1  0
 10 11  2  0
 11 12  1  0
 12 13  2  0
 13 14  1  0
 14 15  2  0
 14 16  1  0
 15 10  1  0
 16 17  1  0
 16 18  1  0
 16 19  1  0
 20 21  2  0
 21  2  1  0
 21 22  1  0
 22 23  2  0
 23 24  1  0
 24 25  1  0
 25 26  2  0
 26 27  1  0
 27 28  2  0
 28 29  1  0
 28 33  1  0
 29 30  1  0
 29 37  1  0
 30 31  1  0
 31 32  1  0
 32 30  1  0
 33 34  2  0
 34 35  1  0
 35 36  2  0
 36 24  1  0
 36 27  1  0
M  END
> <CMPD_CHEMBLID>
CHEMBL559069

> <STANDARD_TYPE>
IC50

> <RELATION>
=

> <STANDARD_VALUE>
62000

> <STANDARD_UNITS>
nM

> <Molecular_Weight>
493.48369

$$$$

  SciTegic11272012012D

 16 18  0  0  0  0            999 V2000
    1.2861   -0.7425    0.0000 Cl  0  0
    0.7145   -0.4125    0.0000 C   0  0
    0.7145    0.4125    0.0000 C   0  0
    0.0000    0.8250    0.0000 C   0  0
   -0.1713    1.6316    0.0000 N   0  0
   -0.9918    1.7179    0.0000 N   0  0
   -1.3273    0.9642    0.0000 C   0  0
   -2.1348    0.7925    0.0000 C   0  0
   -2.7291    1.3607    0.0000 C   0  0
   -3.5209    1.1288    0.0000 C   0  0
   -3.7159    0.3272    0.0000 C   0  0
   -3.1193   -0.2426    0.0000 C   0  0
   -2.3275   -0.0107    0.0000 C   0  0
   -0.7145    0.4125    0.0000 N   0  0
   -0.7145   -0.4125    0.0000 C   0  0
    0.0000   -0.8250    0.0000 N   0  0
  1  2  1  0
  2  3  2  0
  3  4  1  0
  4  5  2  0
  5  6  1  0
  6  7  2  0
  7  8  1  0
  7 14  1  0
  8  9  2  0
  9 10  1  0
 10 11  2  0
 11 12  1  0
 12 13  2  0
 13  8  1  0
 14  4  1  0
 14 15  1  0
 15 16  2  0
 16  2  1  0
M  END
> <CMPD_CHEMBLID>
CHEMBL1998228

> <STANDARD_TYPE>
Ki

> <RELATION>
=

> <STANDARD_VALUE>
63095.73

> <STANDARD_UNITS>
nM

> <Molecular_Weight>
230.65308

$$$$

  SciTegic11272012012D

 17 18  0  0  0  0            999 V2000
    2.0013   -0.4930    0.0000 C   0  0
    1.4302   -0.8238    0.0000 C   0  0
    1.4314   -1.4838    0.0000 C   0  0
    0.7145   -0.4125    0.0000 C   0  0
    0.7145    0.4125    0.0000 C   0  0
    0.0000    0.8250    0.0000 C   0  0
    0.0000    1.4850    0.0000 O   0  0
   -0.7145    0.4125    0.0000 N   0  0
   -0.7145   -0.4125    0.0000 C   0  0
    0.0000   -0.8250    0.0000 C   0  0
   -0.1713   -1.6316    0.0000 C   0  0
    0.2704   -2.1221    0.0000 O   0  0
   -0.9918   -1.7179    0.0000 N   0  0
   -1.3273   -0.9642    0.0000 N   0  0
   -1.8654   -0.8498    0.0000 H   0  0
   -1.2668   -2.1942    0.0000 H   0  0
   -1.1908    0.6875    0.0000 H   0  0
  1  2  1  0
  2  3  1  0
  2  4  1  0
  4  5  2  0
  5  6  1  0
  6  7  2  0
  6  8  1  0
  8  9  1  0
  8 17  1  0
  9 10  2  0
 10  4  1  0
 10 11  1  0
 11 12  2  0
 11 13  1  0
 13 14  1  0
 13 16  1  0
 14  9  1  0
 14 15  1  0
M  END
> <CMPD_CHEMBLID>
CHEMBL1999120

> <STANDARD_TYPE>
Ki

> <RELATION>
=

> <STANDARD_VALUE>
63095.73

> <STANDARD_UNITS>
nM

> <Molecular_Weight>
193.20254

$$$$

  SciTegic11272012012D

 17 18  0  0  0  0            999 V2000
    1.1045   -2.9542    0.0000 O   0  0
    0.5793   -2.3174    0.0000 C   0  0
   -0.0716   -2.4267    0.0000 O   0  0
    0.8672   -1.5452    0.0000 C   0  0
    1.6624   -1.3257    0.0000 C   0  0
    1.6995   -0.5016    0.0000 S   0  0
    0.9269   -0.2115    0.0000 C   0  0
    0.7433    0.5928    0.0000 C   0  0
    1.2593    1.0043    0.0000 O   0  0
    0.0000    0.9507    0.0000 N   0  0
   -0.7433    0.5927    0.0000 C   0  0
   -0.9269   -0.2116    0.0000 C   0  0
   -0.4125   -0.8566    0.0000 N   0  0
    0.4125   -0.8566    0.0000 C   0  0
   -0.6511   -1.3521    0.0000 H   0  0
    0.0000    1.5007    0.0000 H   0  0
    0.9124   -3.4695    0.0000 H   0  0
  1  2  1  0
  1 17  1  0
  2  3  2  0
  2  4  1  0
  4  5  2  0
  5  6  1  0
  6  7  1  0
  7  8  1  0
  8  9  2  0
  8 10  1  0
 10 11  1  0
 10 16  1  0
 11 12  1  0
 12 13  1  0
 13 14  1  0
 13 15  1  0
 14  4  1  0
 14  7  2  0
M  END
> <CMPD_CHEMBLID>
CHEMBL1974875

> <STANDARD_TYPE>
Ki

> <RELATION>
=

> <STANDARD_VALUE>
63095.73

> <STANDARD_UNITS>
nM

> <Molecular_Weight>
212.22572

$$$$

  SciTegic11272012012D

 20 22  0  0  0  0            999 V2000
    2.0013   -0.4930    0.0000 C   0  0
    1.4302   -0.8237    0.0000 O   0  0
    0.7145   -0.4125    0.0000 C   0  0
    0.7145    0.4125    0.0000 C   0  0
    0.0000    0.8250    0.0000 C   0  0
   -0.7145    0.4125    0.0000 C   0  0
   -1.4293    0.8252    0.0000 C   0  0
   -1.4307    1.6502    0.0000 C   0  0
   -2.1459    2.0616    0.0000 C   0  0
   -2.8597    1.6480    0.0000 C   0  0
   -3.5760    2.0581    0.0000 N   0  0
   -2.8583    0.8230    0.0000 C   0  0
   -2.1432    0.4116    0.0000 C   0  0
   -0.7145   -0.4125    0.0000 C   0  0
   -1.3273   -0.9642    0.0000 C   0  0
   -0.9918   -1.7178    0.0000 N   0  0
   -0.1713   -1.6316    0.0000 O   0  0
    0.0000   -0.8250    0.0000 C   0  0
   -4.0515    1.7816    0.0000 H   0  0
   -3.5779    2.6081    0.0000 H   0  0
  1  2  1  0
  2  3  1  0
  3  4  2  0
  4  5  1  0
  5  6  2  0
  6  7  1  0
  6 14  1  0
  7  8  2  0
  8  9  1  0
  9 10  2  0
 10 11  1  0
 10 12  1  0
 11 19  1  0
 11 20  1  0
 12 13  2  0
 13  7  1  0
 14 15  1  0
 15 16  2  0
 16 17  1  0
 17 18  1  0
 18  3  1  0
 18 14  2  0
M  END
> <CMPD_CHEMBLID>
CHEMBL2002450

> <STANDARD_TYPE>
Ki

> <RELATION>
=

> <STANDARD_VALUE>
63095.73

> <STANDARD_UNITS>
nM

> <Molecular_Weight>
240.25728

$$$$

  SciTegic11272012012D

 14 15  0  0  0  0            999 V2000
    1.4302   -0.8238    0.0000 N   0  0
    0.7145   -0.4125    0.0000 C   0  0
    0.7145    0.4125    0.0000 N   0  0
    0.0000    0.8250    0.0000 C   0  0
    0.0000    1.4850    0.0000 O   0  0
   -0.7145    0.4125    0.0000 N   0  0
   -0.7145   -0.4125    0.0000 C   0  0
   -1.3273   -0.9642    0.0000 S   0  0
   -0.9918   -1.7179    0.0000 C   0  0
   -0.1713   -1.6316    0.0000 C   0  0
    0.0000   -0.8250    0.0000 C   0  0
   -1.1908    0.6875    0.0000 H   0  0
    1.9062   -0.5481    0.0000 H   0  0
    1.4312   -1.3738    0.0000 H   0  0
  1  2  1  0
  1 13  1  0
  1 14  1  0
  2  3  2  0
  3  4  1  0
  4  5  2  0
  4  6  1  0
  6  7  1  0
  6 12  1  0
  7  8  1  0
  8  9  1  0
  9 10  2  0
 10 11  1  0
 11  2  1  0
 11  7  2  0
M  END
> <CMPD_CHEMBLID>
CHEMBL2007097

> <STANDARD_TYPE>
Ki

> <RELATION>
=

> <STANDARD_VALUE>
63095.73

> <STANDARD_UNITS>
nM

> <Molecular_Weight>
167.1884

$$$$

  SciTegic11272012012D

 14 15  0  0  0  0            999 V2000
    0.3286   -3.1455    0.0000 C   0  0
    0.9886   -3.1466    0.0000 C   0  0
    1.3174   -3.7189    0.0000 O   0  0
    1.4024   -2.4324    0.0000 N   0  0
    0.9918   -1.7179    0.0000 C   0  0
    1.3273   -0.9642    0.0000 C   0  0
    0.7145   -0.4125    0.0000 C   0  0
    0.7145    0.4125    0.0000 C   0  0
    0.0000    0.8250    0.0000 C   0  0
   -0.7145    0.4125    0.0000 C   0  0
   -0.7145   -0.4125    0.0000 C   0  0
    0.0000   -0.8250    0.0000 N   0  0
    0.1713   -1.6316    0.0000 N   0  0
    1.9524   -2.4333    0.0000 H   0  0
  1  2  1  0
  2  3  2  0
  2  4  1  0
  4  5  1  0
  4 14  1  0
  5  6  1  0
  6  7  2  0
  7  8  1  0
  8  9  2  0
  9 10  1  0
 10 11  2  0
 11 12  1  0
 12  7  1  0
 12 13  1  0
 13  5  2  0
M  END
> <CMPD_CHEMBLID>
CHEMBL1976872

> <STANDARD_TYPE>
Ki

> <RELATION>
=

> <STANDARD_VALUE>
63095.73

> <STANDARD_UNITS>
nM

> <Molecular_Weight>
175.18726

$$$$

  SciTegic11272012012D

 34 37  0  0  0  0            999 V2000
    2.2541   -3.0993    0.0000 C   0  0
    2.6435   -2.5664    0.0000 C   0  0
    3.2996   -2.6374    0.0000 C   0  0
    2.3108   -1.8125    0.0000 N   0  0
    1.5040   -1.6398    0.0000 N   0  0
    1.4293   -0.8252    0.0000 C   0  0
    0.7145   -0.4125    0.0000 C   0  0
    0.7145    0.4125    0.0000 C   0  0
    0.0000    0.8250    0.0000 C   0  0
   -0.7145    0.4125    0.0000 C   0  0
   -1.4290    0.8250    0.0000 N   0  0
   -2.1435    0.4125    0.0000 C   0  0
   -2.1435   -0.4125    0.0000 C   0  0
   -1.4290   -0.8250    0.0000 C   0  0
   -1.4306   -1.6505    0.0000 N   0  0
   -2.1461   -2.0622    0.0000 C   0  0
   -2.7172   -1.7312    0.0000 O   0  0
   -2.1478   -2.8877    0.0000 O   0  0
   -2.8633   -3.2994    0.0000 C   0  0
   -2.8646   -3.9594    0.0000 C   0  0
   -3.4355   -3.6283    0.0000 C   0  0
   -3.4343   -2.9684    0.0000 C   0  0
   -0.7145   -0.4125    0.0000 C   0  0
    0.0000   -0.8250    0.0000 C   0  0
    2.1728   -0.4850    0.0000 C   0  0
    2.4289    0.2993    0.0000 C   0  0
    1.8786    0.9146    0.0000 N   0  0
    3.2361    0.4697    0.0000 N   0  0
    3.7873   -0.1443    0.0000 C   0  0
    3.5312   -0.9285    0.0000 N   0  0
    2.7239   -1.0989    0.0000 C   0  0
    2.0501    1.4372    0.0000 H   0  0
    1.3403    0.8020    0.0000 H   0  0
   -0.9548   -1.9263    0.0000 H   0  0
  1  2  1  0
  2  3  1  0
  2  4  1  0
  4  5  1  0
  5  6  2  0
  6  7  1  0
  6 25  1  0
  7  8  2  0
  8  9  1  0
  9 10  2  0
 10 11  1  0
 11 12  2  0
 12 13  1  0
 13 14  2  0
 14 15  1  0
 14 23  1  0
 15 16  1  0
 15 34  1  0
 16 17  2  0
 16 18  1  0
 18 19  1  0
 19 20  1  0
 19 21  1  0
 19 22  1  0
 23 10  1  0
 23 24  2  0
 24  7  1  0
 25 26  2  0
 26 27  1  0
 26 28  1  0
 27 32  1  0
 27 33  1  0
 28 29  2  0
 29 30  1  0
 30 31  2  0
 31  4  1  0
 31 25  1  0
M  END
> <CMPD_CHEMBLID>
CHEMBL1242033

> <STANDARD_TYPE>
IC50

> <RELATION>
=

> <STANDARD_VALUE>
65000

> <STANDARD_UNITS>
nM

> <Molecular_Weight>
419.4796

$$$$

  SciTegic11272012012D

 27 29  0  0  0  0            999 V2000
    0.3639   -5.2871    0.0000 C   0  0
    0.2065   -4.6461    0.0000 C   0  0
   -0.5860   -4.4152    0.0000 O   0  0
   -0.7828   -3.6136    0.0000 C   0  0
   -0.1861   -3.0438    0.0000 C   0  0
   -0.3810   -2.2450    0.0000 C   0  0
   -1.1730   -2.0103    0.0000 C   0  0
   -1.7697   -2.5801    0.0000 C   0  0
   -1.5746   -3.3817    0.0000 C   0  0
   -2.1728   -3.9506    0.0000 O   0  0
   -2.8059   -3.7642    0.0000 C   0  0
    0.1713   -1.6316    0.0000 C   0  0
    0.9918   -1.7179    0.0000 N   0  0
    1.3273   -0.9642    0.0000 N   0  0
    2.1337   -0.7943    0.0000 C   0  0
    2.6853   -1.4085    0.0000 C   0  0
    3.4931   -1.2384    0.0000 O   0  0
    0.7145   -0.4125    0.0000 C   0  0
    0.7145    0.4125    0.0000 N   0  0
    0.0000    0.8250    0.0000 C   0  0
   -0.7145    0.4125    0.0000 N   0  0
   -0.7145   -0.4125    0.0000 C   0  0
   -1.4302   -0.8238    0.0000 N   0  0
    0.0000   -0.8250    0.0000 C   0  0
   -1.9062   -0.5481    0.0000 H   0  0
   -1.4312   -1.3738    0.0000 H   0  0
    3.8606   -1.6476    0.0000 H   0  0
  1  2  1  0
  2  3  1  0
  3  4  1  0
  4  5  2  0
  5  6  1  0
  6  7  2  0
  6 12  1  0
  7  8  1  0
  8  9  2  0
  9  4  1  0
  9 10  1  0
 10 11  1  0
 12 13  2  0
 13 14  1  0
 14 15  1  0
 14 18  1  0
 15 16  1  0
 16 17  1  0
 17 27  1  0
 18 19  2  0
 19 20  1  0
 20 21  2  0
 21 22  1  0
 22 23  1  0
 22 24  2  0
 23 25  1  0
 23 26  1  0
 24 12  1  0
 24 18  1  0
M  END
> <CMPD_CHEMBLID>
CHEMBL1242753

> <STANDARD_TYPE>
IC50

> <RELATION>
=

> <STANDARD_VALUE>
65000

> <STANDARD_UNITS>
nM

> <Molecular_Weight>
329.35376

$$$$

  SciTegic11272012012D

 29 30  0  0  0  0            999 V2000
    2.7111   -3.2230    0.0000 C   0  0
    2.1402   -2.8918    0.0000 N   0  0
    1.5680   -3.2208    0.0000 C   0  0
    2.1413   -2.0663    0.0000 C   0  0
    1.4273   -1.6521    0.0000 C   0  0
    0.8551   -1.9812    0.0000 C   0  0
    1.4285   -0.8267    0.0000 C   0  0
    2.0006   -0.4977    0.0000 O   0  0
    0.7144   -0.4125    0.0000 C   0  0
    0.7144    0.4125    0.0000 C   0  0
    0.0000    0.8250    0.0000 C   0  0
   -0.7144    0.4125    0.0000 C   0  0
   -1.4302    0.8237    0.0000 O   0  0
   -2.1444    0.4100    0.0000 S   0  0
   -2.1433   -0.2500    0.0000 O   0  0
   -1.5723    0.0809    0.0000 O   0  0
   -2.8602    0.8213    0.0000 C   0  0
   -3.5738    0.4073    0.0000 C   0  0
   -4.2891    0.8183    0.0000 C   0  0
   -4.2908    1.6433    0.0000 C   0  0
   -3.5772    2.0573    0.0000 C   0  0
   -2.8619    1.6463    0.0000 C   0  0
   -5.0057    2.0560    0.0000 C   0  0
   -5.5772    1.7258    0.0000 O   0  0
   -5.0062    2.8815    0.0000 N   0  0
   -5.5778    3.2115    0.0000 C   0  0
   -4.4348    3.2117    0.0000 C   0  0
   -0.7144   -0.4125    0.0000 C   0  0
    0.0000   -0.8250    0.0000 C   0  0
  1  2  1  0
  2  3  1  0
  2  4  1  0
  4  5  1  0
  5  6  2  0
  5  7  1  0
  7  8  2  0
  7  9  1  0
  9 10  2  0
 10 11  1  0
 11 12  2  0
 12 13  1  0
 12 28  1  0
 13 14  1  0
 14 15  2  0
 14 16  2  0
 14 17  1  0
 17 18  2  0
 18 19  1  0
 19 20  2  0
 20 21  1  0
 20 23  1  0
 21 22  2  0
 22 17  1  0
 23 24  2  0
 23 25  1  0
 25 26  1  0
 25 27  1  0
 28 29  2  0
 29  9  1  0
M  END
> <CMPD_CHEMBLID>
CHEMBL552634

> <STANDARD_TYPE>
IC50

> <RELATION>
=

> <STANDARD_VALUE>
70000

> <STANDARD_UNITS>
nM

> <Molecular_Weight>
416.49066

$$$$

  SciTegic11272012012D

 25 28  0  0  0  0            999 V2000
    2.0009   -1.1552    0.0000 N   0  0
    1.4293   -0.8252    0.0000 C   0  0
    0.7144   -0.4125    0.0000 C   0  0
    0.7144    0.4125    0.0000 C   0  0
    1.4285    0.8267    0.0000 S   0  0
    1.4273    1.6521    0.0000 C   0  0
    2.1413    2.0663    0.0000 C   0  0
    2.1413    2.8914    0.0000 C   0  0
    2.8558    3.3039    0.0000 C   0  0
    3.5703    2.8914    0.0000 C   0  0
    3.5703    2.0664    0.0000 C   0  0
    2.8559    1.6539    0.0000 C   0  0
    0.0000    0.8250    0.0000 N   0  0
   -0.7144    0.4125    0.0000 C   0  0
   -1.4290    0.8250    0.0000 C   0  0
   -2.1434    0.4125    0.0000 C   0  0
   -2.1434   -0.4125    0.0000 C   0  0
   -1.4290   -0.8250    0.0000 C   0  0
   -0.7144   -0.4125    0.0000 C   0  0
    0.0000   -0.8250    0.0000 C   0  0
    0.0000   -1.6504    0.0000 C   0  0
   -0.6667   -2.1244    0.0000 C   0  0
   -0.4105   -2.9086    0.0000 C   0  0
    0.4145   -2.9073    0.0000 C   0  0
    0.6682   -2.1223    0.0000 S   0  0
  1  2  3  0
  2  3  1  0
  3  4  2  0
  4  5  1  0
  4 13  1  0
  5  6  1  0
  6  7  1  0
  7  8  2  0
  8  9  1  0
  9 10  2  0
 10 11  1  0
 11 12  2  0
 12  7  1  0
 13 14  2  0
 14 15  1  0
 15 16  1  0
 16 17  1  0
 17 18  1  0
 18 19  1  0
 19 14  1  0
 19 20  2  0
 20  3  1  0
 20 21  1  0
 21 22  2  0
 22 23  1  0
 23 24  2  0
 24 25  1  0
 25 21  1  0
M  END
> <CMPD_CHEMBLID>
CHEMBL1171912

> <STANDARD_TYPE>
IC50

> <RELATION>
=

> <STANDARD_VALUE>
72000

> <STANDARD_UNITS>
nM

> <Molecular_Weight>
362.51102

$$$$

  SciTegic11272012012D

 46 47  0  0  0  0            999 V2000
    4.1410   -3.2277    0.0000 C   0  0
    3.5705   -2.8959    0.0000 C   0  0
    3.5728   -2.2359    0.0000 C   0  0
    2.8541   -3.3059    0.0000 C   0  0
    2.1401   -2.8917    0.0000 N   0  0
    2.1413   -2.0663    0.0000 C   0  0
    2.7134   -1.7373    0.0000 O   0  0
    1.4273   -1.6521    0.0000 C   0  0
    1.4285   -0.8267    0.0000 C   0  0
    2.1436   -0.4145    0.0000 C   0  0
    2.1460    0.4105    0.0000 C   0  0
    2.8617    0.8209    0.0000 C   0  0
    3.5749    0.4064    0.0000 C   0  0
    4.2918    0.8156    0.0000 O   0  0
    5.0049    0.3998    0.0000 P   0  0
    5.0018   -0.2601    0.0000 O   0  0
    5.7217    0.8090    0.0000 O   0  0
    4.2748   -0.0186    0.0000 O   0  0
    3.5726   -0.4186    0.0000 C   0  0
    2.8569   -0.8291    0.0000 C   0  0
    0.7109   -2.0621    0.0000 N   0  0
   -0.0026   -1.6472    0.0000 C   0  0
   -0.5755   -1.9750    0.0000 O   0  0
   -0.0004   -0.9872    0.0000 C   0  0
    2.8530   -4.1314    0.0000 C   0  0
    2.2808   -4.4604    0.0000 O   0  0
    3.5670   -4.5456    0.0000 N   0  0
    3.5657   -5.3710    0.0000 C   0  0
    2.9936   -5.7000    0.0000 C   0  0
    4.2797   -5.7852    0.0000 C   0  0
    4.8519   -5.4562    0.0000 O   0  0
    4.2786   -6.6106    0.0000 N   0  0
    4.9926   -7.0248    0.0000 C   0  0
    4.9914   -7.8502    0.0000 C   0  0
    5.7054   -8.2644    0.0000 C   0  0
    5.7054   -9.0895    0.0000 C   0  0
    6.4199   -9.5020    0.0000 C   0  0
    7.1344   -9.0895    0.0000 C   0  0
    7.1344   -8.2645    0.0000 C   0  0
    6.4199   -7.8520    0.0000 C   0  0
    3.8018   -6.8848    0.0000 H   0  0
    4.0437   -4.2714    0.0000 H   0  0
    0.7089   -2.6121    0.0000 H   0  0
    4.2727   -0.5686    0.0000 H   0  0
    6.1968    0.5320    0.0000 H   0  0
    1.6633   -3.1659    0.0000 H   0  0
  1  2  1  0
  2  3  1  0
  2  4  1  0
  4  5  1  0
  4 25  1  0
  5  6  1  0
  5 46  1  0
  6  7  2  0
  6  8  1  0
  8  9  1  0
  8 21  1  0
  9 10  1  0
 10 11  2  0
 11 12  1  0
 12 13  2  0
 13 14  1  0
 13 19  1  0
 14 15  1  0
 15 16  2  0
 15 17  1  0
 15 18  1  0
 17 45  1  0
 18 44  1  0
 19 20  2  0
 20 10  1  0
 21 22  1  0
 21 43  1  0
 22 23  2  0
 22 24  1  0
 25 26  2  0
 25 27  1  0
 27 28  1  0
 27 42  1  0
 28 29  1  0
 28 30  1  0
 30 31  2  0
 30 32  1  0
 32 33  1  0
 32 41  1  0
 33 34  1  0
 34 35  1  0
 35 36  2  0
 36 37  1  0
 37 38  2  0
 38 39  1  0
 39 40  2  0
 40 35  1  0
M  END
> <CMPD_CHEMBLID>
CHEMBL343050

> <STANDARD_TYPE>
IC50

> <RELATION>
=

> <STANDARD_VALUE>
72000

> <STANDARD_UNITS>
nM

> <Molecular_Weight>
576.57844

$$$$

  SciTegic11272012012D

 43 48  0  0  0  0            999 V2000
    0.2263   -4.5662    0.0000 C   0  0
   -0.4193   -4.4289    0.0000 C   0  0
   -0.9714   -5.0419    0.0000 C   0  0
   -1.7784   -4.8702    0.0000 C   0  0
   -2.0332   -4.0856    0.0000 C   0  0
   -1.4810   -3.4726    0.0000 C   0  0
   -0.6741   -3.6442    0.0000 C   0  0
   -0.1229   -3.0297    0.0000 C   0  0
   -0.3789   -2.2450    0.0000 C   0  0
    0.1713   -1.6316    0.0000 N   0  0
    0.9918   -1.7178    0.0000 C   0  0
    1.3273   -0.9641    0.0000 N   0  0
    0.7144   -0.4125    0.0000 C   0  0
    0.7144    0.4125    0.0000 C   0  0
    1.4285    0.8267    0.0000 N   0  0
    1.4273    1.6521    0.0000 C   0  0
    1.8374    2.3178    0.0000 C   0  0
    1.0124    2.3149    0.0000 C   0  0
    0.0000    0.8250    0.0000 N   0  0
   -0.7144    0.4125    0.0000 C   0  0
   -0.7144   -0.4125    0.0000 N   0  0
    0.0000   -0.8250    0.0000 C   0  0
   -2.8402   -3.9122    0.0000 C   0  0
   -3.2828   -4.4018    0.0000 O   0  0
   -3.0941   -3.1267    0.0000 N   0  0
   -3.9011   -2.9533    0.0000 C   0  0
   -4.1560   -2.1686    0.0000 C   0  0
   -4.9629   -1.9969    0.0000 C   0  0
   -5.5150   -2.6100    0.0000 C   0  0
   -5.2603   -3.3946    0.0000 C   0  0
   -4.4533   -3.5663    0.0000 C   0  0
   -5.8127   -4.0080    0.0000 C   0  0
   -6.4583   -3.8710    0.0000 F   0  0
   -5.6086   -4.6356    0.0000 F   0  0
   -6.2542   -4.4986    0.0000 F   0  0
   -5.2178   -1.2119    0.0000 N   0  0
   -4.6666   -0.5980    0.0000 C   0  0
   -4.9227    0.1863    0.0000 C   0  0
   -5.7299    0.3567    0.0000 O   0  0
   -6.2811   -0.2572    0.0000 C   0  0
   -6.0250   -1.0414    0.0000 C   0  0
   -2.7252   -2.7186    0.0000 H   0  0
    1.9053    0.5525    0.0000 H   0  0
  1  2  1  0
  2  3  2  0
  3  4  1  0
  4  5  2  0
  5  6  1  0
  5 23  1  0
  6  7  2  0
  7  2  1  0
  7  8  1  0
  8  9  2  0
  9 10  1  0
 10 11  1  0
 11 12  2  0
 12 13  1  0
 13 14  2  0
 14 15  1  0
 14 19  1  0
 15 16  1  0
 15 43  1  0
 16 17  1  0
 17 18  1  0
 18 16  1  0
 19 20  2  0
 20 21  1  0
 21 22  2  0
 22 10  1  0
 22 13  1  0
 23 24  2  0
 23 25  1  0
 25 26  1  0
 25 42  1  0
 26 27  2  0
 27 28  1  0
 28 29  2  0
 28 36  1  0
 29 30  1  0
 30 31  2  0
 30 32  1  0
 31 26  1  0
 32 33  1  0
 32 34  1  0
 32 35  1  0
 36 37  1  0
 37 38  1  0
 38 39  1  0
 39 40  1  0
 40 41  1  0
 41 36  1  0
M  END
> <CMPD_CHEMBLID>
CHEMBL553695

> <STANDARD_TYPE>
IC50

> <RELATION>
=

> <STANDARD_VALUE>
72000

> <STANDARD_UNITS>
nM

> <Molecular_Weight>
563.57353

$$$$

  SciTegic11272012012D

 26 29  0  0  0  0            999 V2000
    4.8608   -1.9763    0.0000 F   0  0
    4.2892   -1.6463    0.0000 C   0  0
    4.2892   -0.8213    0.0000 C   0  0
    3.5747   -0.4088    0.0000 C   0  0
    2.8602   -0.8213    0.0000 C   0  0
    2.1444   -0.4100    0.0000 C   0  0
    1.4302   -0.8237    0.0000 S   0  0
    0.7144   -0.4125    0.0000 C   0  0
    0.7144    0.4125    0.0000 N   0  0
    0.0000    0.8250    0.0000 C   0  0
    0.0000    1.6500    0.0000 C   0  0
   -0.7145    2.0625    0.0000 C   0  0
   -1.4290    1.6500    0.0000 C   0  0
   -1.4290    0.8250    0.0000 C   0  0
   -0.7144    0.4125    0.0000 C   0  0
   -0.7144   -0.4125    0.0000 C   0  0
   -1.4293   -0.8252    0.0000 C   0  0
   -2.1731   -0.4848    0.0000 C   0  0
   -2.7242   -1.0988    0.0000 C   0  0
   -2.3105   -1.8126    0.0000 C   0  0
   -1.5039   -1.6398    0.0000 S   0  0
    0.0000   -0.8250    0.0000 C   0  0
    0.0000   -1.6504    0.0000 C   0  0
    0.0000   -2.3104    0.0000 N   0  0
    2.8602   -1.6463    0.0000 C   0  0
    3.5747   -2.0588    0.0000 C   0  0
  1  2  1  0
  2  3  2  0
  3  4  1  0
  4  5  2  0
  5  6  1  0
  5 25  1  0
  6  7  1  0
  7  8  1  0
  8  9  2  0
  9 10  1  0
 10 11  1  0
 11 12  1  0
 12 13  1  0
 13 14  1  0
 14 15  1  0
 15 10  2  0
 15 16  1  0
 16 17  1  0
 16 22  2  0
 17 18  2  0
 18 19  1  0
 19 20  2  0
 20 21  1  0
 21 17  1  0
 22  8  1  0
 22 23  1  0
 23 24  3  0
 25 26  2  0
 26  2  1  0
M  END
> <CMPD_CHEMBLID>
CHEMBL1172697

> <STANDARD_TYPE>
IC50

> <RELATION>
=

> <STANDARD_VALUE>
74000

> <STANDARD_UNITS>
nM

> <Molecular_Weight>
380.50148

$$$$

  SciTegic11272012012D

 37 41  0  0  0  0            999 V2000
    0.2263   -4.5662    0.0000 C   0  0
   -0.4193   -4.4289    0.0000 C   0  0
   -0.9714   -5.0419    0.0000 C   0  0
   -1.7784   -4.8702    0.0000 C   0  0
   -2.0332   -4.0856    0.0000 C   0  0
   -2.8402   -3.9122    0.0000 N   0  0
   -3.0941   -3.1267    0.0000 C   0  0
   -2.6515   -2.6371    0.0000 O   0  0
   -3.9011   -2.9533    0.0000 C   0  0
   -4.1560   -2.1686    0.0000 C   0  0
   -4.9629   -1.9969    0.0000 C   0  0
   -5.5150   -2.6100    0.0000 C   0  0
   -5.2603   -3.3946    0.0000 C   0  0
   -4.4533   -3.5663    0.0000 C   0  0
   -5.8127   -4.0080    0.0000 C   0  0
   -6.4583   -3.8710    0.0000 F   0  0
   -5.6086   -4.6356    0.0000 F   0  0
   -6.2542   -4.4986    0.0000 F   0  0
   -1.4810   -3.4726    0.0000 C   0  0
   -0.6741   -3.6442    0.0000 C   0  0
   -0.1229   -3.0297    0.0000 C   0  0
   -0.3789   -2.2450    0.0000 C   0  0
    0.1713   -1.6316    0.0000 N   0  0
    0.9918   -1.7178    0.0000 C   0  0
    1.3273   -0.9641    0.0000 N   0  0
    0.7144   -0.4125    0.0000 C   0  0
    0.7144    0.4125    0.0000 C   0  0
    1.4285    0.8267    0.0000 N   0  0
    1.4273    1.6521    0.0000 C   0  0
    1.8374    2.3178    0.0000 C   0  0
    1.0124    2.3149    0.0000 C   0  0
    0.0000    0.8250    0.0000 N   0  0
   -0.7144    0.4125    0.0000 C   0  0
   -0.7144   -0.4125    0.0000 N   0  0
    0.0000   -0.8250    0.0000 C   0  0
    1.9053    0.5525    0.0000 H   0  0
   -3.2090   -4.3202    0.0000 H   0  0
  1  2  1  0
  2  3  2  0
  3  4  1  0
  4  5  2  0
  5  6  1  0
  5 19  1  0
  6  7  1  0
  6 37  1  0
  7  8  2  0
  7  9  1  0
  9 10  2  0
 10 11  1  0
 11 12  2  0
 12 13  1  0
 13 14  2  0
 13 15  1  0
 14  9  1  0
 15 16  1  0
 15 17  1  0
 15 18  1  0
 19 20  2  0
 20  2  1  0
 20 21  1  0
 21 22  2  0
 22 23  1  0
 23 24  1  0
 24 25  2  0
 25 26  1  0
 26 27  2  0
 27 28  1  0
 27 32  1  0
 28 29  1  0
 28 36  1  0
 29 30  1  0
 30 31  1  0
 31 29  1  0
 32 33  2  0
 33 34  1  0
 34 35  2  0
 35 23  1  0
 35 26  1  0
M  END
> <CMPD_CHEMBLID>
CHEMBL564575

> <STANDARD_TYPE>
IC50

> <RELATION>
=

> <STANDARD_VALUE>
74000

> <STANDARD_UNITS>
nM

> <Molecular_Weight>
478.46905

$$$$

  SciTegic11272012012D

 15 16  0  0  0  0            999 V2000
    1.4302   -0.8238    0.0000 N   0  0
    0.7145   -0.4125    0.0000 C   0  0
    0.7145    0.4125    0.0000 C   0  0
    0.0000    0.8250    0.0000 C   0  0
   -0.7145    0.4125    0.0000 N   0  0
   -0.7145   -0.4125    0.0000 C   0  0
   -1.3273   -0.9642    0.0000 C   0  0
   -1.9729   -0.8269    0.0000 Br  0  0
   -0.9918   -1.7179    0.0000 C   0  0
   -0.1713   -1.6316    0.0000 N   0  0
    0.0000   -0.8250    0.0000 N   0  0
    1.4294    0.8252    0.0000 C   0  0
    2.0009    1.1552    0.0000 N   0  0
    1.9062   -0.5481    0.0000 H   0  0
    1.4312   -1.3738    0.0000 H   0  0
  1  2  1  0
  1 14  1  0
  1 15  1  0
  2  3  2  0
  3  4  1  0
  3 12  1  0
  4  5  2  0
  5  6  1  0
  6  7  2  0
  7  8  1  0
  7  9  1  0
  9 10  2  0
 10 11  1  0
 11  2  1  0
 11  6  1  0
 12 13  3  0
M  END
> <CMPD_CHEMBLID>
CHEMBL1991095

> <STANDARD_TYPE>
Ki

> <RELATION>
=

> <STANDARD_VALUE>
79432.82

> <STANDARD_UNITS>
nM

> <Molecular_Weight>
238.04416

$$$$

  SciTegic11272012012D

 14 15  0  0  0  0            999 V2000
   -0.3790   -2.2450    0.0000 N   0  0
    0.1713   -1.6316    0.0000 C   0  0
    0.9918   -1.7179    0.0000 N   0  0
    1.3273   -0.9642    0.0000 N   0  0
    0.7145   -0.4125    0.0000 C   0  0
    0.7145    0.4125    0.0000 N   0  0
    0.0000    0.8250    0.0000 C   0  0
   -0.7145    0.4125    0.0000 C   0  0
   -1.2861    0.7425    0.0000 Br  0  0
   -0.7145   -0.4125    0.0000 C   0  0
    0.0000   -0.8250    0.0000 C   0  0
    1.8654   -0.8498    0.0000 H   0  0
   -0.2083   -2.7679    0.0000 H   0  0
   -0.9171   -2.1315    0.0000 H   0  0
  1  2  1  0
  1 13  1  0
  1 14  1  0
  2  3  2  0
  3  4  1  0
  4  5  1  0
  4 12  1  0
  5  6  2  0
  6  7  1  0
  7  8  2  0
  8  9  1  0
  8 10  1  0
 10 11  2  0
 11  2  1  0
 11  5  1  0
M  END
> <CMPD_CHEMBLID>
CHEMBL2002105

> <STANDARD_TYPE>
Ki

> <RELATION>
=

> <STANDARD_VALUE>
79432.82

> <STANDARD_UNITS>
nM

> <Molecular_Weight>
213.0347

$$$$

  SciTegic11272012012D

 17 19  0  0  0  0            999 V2000
    1.3218   -2.2894    0.0000 O   0  0
    0.9918   -1.7178    0.0000 C   0  0
    1.3273   -0.9642    0.0000 C   0  0
    0.7145   -0.4125    0.0000 C   0  0
    0.7145    0.4125    0.0000 C   0  0
    0.0000    0.8250    0.0000 C   0  0
   -0.7145    0.4125    0.0000 C   0  0
   -0.7145   -0.4125    0.0000 N   0  0
    0.0000   -0.8250    0.0000 C   0  0
    0.1713   -1.6316    0.0000 N   0  0
    0.0000    1.6505    0.0000 C   0  0
    0.7138    2.0641    0.0000 C   0  0
    0.7125    2.8891    0.0000 C   0  0
   -0.0026    3.3005    0.0000 C   0  0
   -0.7164    2.8869    0.0000 C   0  0
   -0.7151    2.0619    0.0000 C   0  0
   -0.1967   -2.0403    0.0000 H   0  0
  1  2  2  0
  2  3  1  0
  3  4  1  0
  4  5  2  0
  5  6  1  0
  6  7  2  0
  6 11  1  0
  7  8  1  0
  8  9  2  0
  9  4  1  0
  9 10  1  0
 10  2  1  0
 10 17  1  0
 11 12  2  0
 12 13  1  0
 13 14  2  0
 14 15  1  0
 15 16  2  0
 16 11  1  0
M  END
> <CMPD_CHEMBLID>
CHEMBL1983630

> <STANDARD_TYPE>
Ki

> <RELATION>
=

> <STANDARD_VALUE>
79432.82

> <STANDARD_UNITS>
nM

> <Molecular_Weight>
210.2313

$$$$

  SciTegic11272012012D

 19 21  0  0  0  0            999 V2000
    1.5771    0.7435    0.0000 C   0  0
    2.1475    0.4116    0.0000 C   0  0
    2.7201    0.7399    0.0000 O   0  0
    2.1445   -0.4139    0.0000 C   0  0
    2.8583   -0.8275    0.0000 C   0  0
    2.8570   -1.6525    0.0000 C   0  0
    2.1419   -2.0639    0.0000 C   0  0
    1.4281   -1.6502    0.0000 C   0  0
    1.4293   -0.8252    0.0000 C   0  0
    0.7145   -0.4125    0.0000 C   0  0
    0.7145    0.4125    0.0000 N   0  0
    0.0000    0.8250    0.0000 C   0  0
   -0.7145    0.4125    0.0000 N   0  0
   -0.7145   -0.4125    0.0000 C   0  0
   -1.3273   -0.9642    0.0000 N   0  0
   -0.9918   -1.7178    0.0000 C   0  0
   -0.1713   -1.6316    0.0000 C   0  0
    0.0000   -0.8250    0.0000 C   0  0
   -1.8653   -0.8498    0.0000 H   0  0
  1  2  1  0
  2  3  2  0
  2  4  1  0
  4  5  2  0
  5  6  1  0
  6  7  2  0
  7  8  1  0
  8  9  2  0
  9  4  1  0
  9 10  1  0
 10 11  2  0
 11 12  1  0
 12 13  2  0
 13 14  1  0
 14 15  1  0
 15 16  1  0
 15 19  1  0
 16 17  2  0
 17 18  1  0
 18 10  1  0
 18 14  2  0
M  END
> <CMPD_CHEMBLID>
CHEMBL1977931

> <STANDARD_TYPE>
Ki

> <RELATION>
=

> <STANDARD_VALUE>
79432.82

> <STANDARD_UNITS>
nM

> <Molecular_Weight>
237.25664

$$$$

  SciTegic11272012012D

 14 15  0  0  0  0            999 V2000
    0.9886   -3.1466    0.0000 N   0  0
    1.4024   -2.4324    0.0000 C   0  0
    2.0624   -2.4335    0.0000 O   0  0
    0.9918   -1.7179    0.0000 C   0  0
    1.3273   -0.9642    0.0000 C   0  0
    0.7145   -0.4125    0.0000 C   0  0
    0.7145    0.4125    0.0000 C   0  0
    0.0000    0.8250    0.0000 C   0  0
   -0.7145    0.4125    0.0000 N   0  0
   -0.7145   -0.4125    0.0000 C   0  0
    0.0000   -0.8250    0.0000 C   0  0
    0.1713   -1.6316    0.0000 S   0  0
    1.2626   -3.6235    0.0000 H   0  0
    0.4386   -3.1457    0.0000 H   0  0
  1  2  1  0
  1 13  1  0
  1 14  1  0
  2  3  2  0
  2  4  1  0
  4  5  2  0
  5  6  1  0
  6  7  2  0
  7  8  1  0
  8  9  2  0
  9 10  1  0
 10 11  2  0
 11  6  1  0
 11 12  1  0
 12  4  1  0
M  END
> <CMPD_CHEMBLID>
CHEMBL1971534

> <STANDARD_TYPE>
Ki

> <RELATION>
=

> <STANDARD_VALUE>
79432.82

> <STANDARD_UNITS>
nM

> <Molecular_Weight>
178.21104

$$$$

  SciTegic11272012012D

 30 33  0  0  0  0            999 V2000
    2.6508   -2.4701    0.0000 C   0  0
    2.6207   -3.1294    0.0000 O   0  0
    1.8879   -3.5095    0.0000 C   0  0
    1.1936   -3.0637    0.0000 C   0  0
    0.4633   -3.4412    0.0000 C   0  0
    0.4216   -4.2662    0.0000 C   0  0
    1.1158   -4.7119    0.0000 C   0  0
    1.0752   -5.5364    0.0000 O   0  0
    0.4882   -5.8382    0.0000 C   0  0
    1.8489   -4.3336    0.0000 C   0  0
    2.5445   -4.7781    0.0000 O   0  0
    3.1306   -4.4746    0.0000 C   0  0
   -0.2646   -3.0519    0.0000 C   0  0
   -0.3810   -2.2449    0.0000 C   0  0
   -1.1836   -2.0837    0.0000 C   0  0
   -1.4633   -1.4859    0.0000 O   0  0
   -1.5771   -2.8088    0.0000 N   0  0
   -1.0091   -3.4072    0.0000 C   0  0
   -1.1293   -4.0562    0.0000 O   0  0
    0.1713   -1.6316    0.0000 C   0  0
    0.9918   -1.7178    0.0000 C   0  0
    1.3273   -0.9642    0.0000 N   0  0
    0.7145   -0.4125    0.0000 C   0  0
    0.7145    0.4125    0.0000 C   0  0
    0.0000    0.8250    0.0000 C   0  0
   -0.7145    0.4125    0.0000 C   0  0
   -0.7145   -0.4125    0.0000 C   0  0
    0.0000   -0.8250    0.0000 C   0  0
    1.8653   -0.8498    0.0000 H   0  0
   -2.1224   -2.8807    0.0000 H   0  0
  1  2  1  0
  2  3  1  0
  3  4  2  0
  4  5  1  0
  5  6  2  0
  5 13  1  0
  6  7  1  0
  7  8  1  0
  7 10  2  0
  8  9  1  0
 10  3  1  0
 10 11  1  0
 11 12  1  0
 13 14  2  0
 14 15  1  0
 14 20  1  0
 15 16  2  0
 15 17  1  0
 17 18  1  0
 17 30  1  0
 18 13  1  0
 18 19  2  0
 20 21  2  0
 21 22  1  0
 22 23  1  0
 22 29  1  0
 23 24  2  0
 24 25  1  0
 25 26  2  0
 26 27  1  0
 27 28  2  0
 28 20  1  0
 28 23  1  0
M  END
> <CMPD_CHEMBLID>
CHEMBL201511

> <STANDARD_TYPE>
IC50

> <RELATION>
=

> <STANDARD_VALUE>
93000

> <STANDARD_UNITS>
nM

> <Molecular_Weight>
378.37802

$$$$

  SciTegic11272012012D

 53 53  0  0  0  0            999 V2000
    7.1265  -11.3978    0.0000 C   0  0
    7.1274  -10.7381    0.0000 C   0  0
    6.4138  -10.3242    0.0000 C   0  0
    6.4150   -9.4992    0.0000 C   0  0
    5.7013   -9.0852    0.0000 C   0  0
    5.7025   -8.2602    0.0000 C   0  0
    4.9889   -7.8462    0.0000 C   0  0
    4.9900   -7.0212    0.0000 C   0  0
    4.2764   -6.6072    0.0000 N   0  0
    3.5620   -7.0200    0.0000 C   0  0
    3.5618   -7.8450    0.0000 C   0  0
    2.8474   -8.2577    0.0000 C   0  0
    2.8472   -9.0827    0.0000 C   0  0
    2.1328   -9.4955    0.0000 C   0  0
    2.1325  -10.3205    0.0000 C   0  0
    1.4182  -10.7332    0.0000 C   0  0
    1.4180  -11.3928    0.0000 C   0  0
    4.2775   -5.7822    0.0000 C   0  0
    4.8494   -5.4534    0.0000 O   0  0
    3.5639   -5.3682    0.0000 C   0  0
    2.9921   -5.6971    0.0000 C   0  0
    3.5651   -4.5432    0.0000 N   0  0
    2.8515   -4.1292    0.0000 C   0  0
    2.2796   -4.4581    0.0000 O   0  0
    2.8526   -3.3042    0.0000 C   0  0
    2.1390   -2.8902    0.0000 N   0  0
    2.1402   -2.0652    0.0000 C   0  0
    2.7120   -1.7364    0.0000 O   0  0
    1.4265   -1.6513    0.0000 C   0  0
    1.4278   -0.8263    0.0000 C   0  0
    2.1425   -0.4143    0.0000 C   0  0
    2.1449    0.4102    0.0000 C   0  0
    2.8602    0.8205    0.0000 C   0  0
    3.5730    0.4062    0.0000 C   0  0
    4.2896    0.8152    0.0000 O   0  0
    5.0023    0.3996    0.0000 P   0  0
    4.9993   -0.2600    0.0000 O   0  0
    5.7188    0.8086    0.0000 O   0  0
    4.2726   -0.0186    0.0000 O   0  0
    3.5707   -0.4184    0.0000 C   0  0
    2.8555   -0.8286    0.0000 C   0  0
    0.7105   -2.0611    0.0000 N   0  0
   -0.0026   -1.6463    0.0000 C   0  0
   -0.5752   -1.9739    0.0000 O   0  0
   -0.0004   -0.9867    0.0000 C   0  0
    3.5670   -2.8915    0.0000 C   0  0
    3.5672   -2.2319    0.0000 C   0  0
    4.1383   -3.2213    0.0000 C   0  0
    0.7086   -2.6108    0.0000 H   0  0
    4.2705   -0.5683    0.0000 H   0  0
    6.1937    0.5317    0.0000 H   0  0
    1.6625   -3.1643    0.0000 H   0  0
    4.0417   -4.2692    0.0000 H   0  0
  1  2  1  0
  2  3  1  0
  3  4  1  0
  4  5  1  0
  5  6  1  0
  6  7  1  0
  7  8  1  0
  8  9  1  0
  9 10  1  0
  9 18  1  0
 10 11  1  0
 11 12  1  0
 12 13  1  0
 13 14  1  0
 14 15  1  0
 15 16  1  0
 16 17  1  0
 18 19  2  0
 18 20  1  0
 20 21  1  0
 20 22  1  0
 22 23  1  0
 22 53  1  0
 23 24  2  0
 23 25  1  0
 25 26  1  0
 25 46  1  0
 26 27  1  0
 26 52  1  0
 27 28  2  0
 27 29  1  0
 29 30  1  0
 29 42  1  0
 30 31  1  0
 31 32  2  0
 32 33  1  0
 33 34  2  0
 34 35  1  0
 34 40  1  0
 35 36  1  0
 36 37  2  0
 36 38  1  0
 36 39  1  0
 38 51  1  0
 39 50  1  0
 40 41  2  0
 41 31  1  0
 42 43  1  0
 42 49  1  0
 43 44  2  0
 43 45  1  0
 46 47  1  0
 46 48  1  0
M  END
> <CMPD_CHEMBLID>
CHEMBL137653

> <STANDARD_TYPE>
IC50

> <RELATION>
=

> <STANDARD_VALUE>
95900

> <STANDARD_UNITS>
nM

> <Molecular_Weight>
696.8546

$$$$

  SciTegic11272012012D

 35 38  0  0  0  0            999 V2000
    2.0013   -0.4930    0.0000 C   0  0
    1.4301   -0.8237    0.0000 N   0  0
    0.7144   -0.4125    0.0000 C   0  0
    0.7144    0.4125    0.0000 N   0  0
    0.0000    0.8250    0.0000 C   0  0
   -0.7144    0.4125    0.0000 N   0  0
   -0.7144   -0.4125    0.0000 C   0  0
    0.0000   -0.8250    0.0000 C   0  0
   -0.1713   -1.6316    0.0000 N   0  0
   -0.9917   -1.7178    0.0000 C   0  0
   -1.3273   -0.9641    0.0000 N   0  0
   -2.1336   -0.7943    0.0000 C   0  0
   -2.6852   -1.4084    0.0000 C   0  0
   -3.4930   -1.2383    0.0000 C   0  0
   -3.7478   -0.4536    0.0000 C   0  0
   -4.5548   -0.2820    0.0000 C   0  0
   -4.8113    0.5026    0.0000 N   0  0
   -5.6190    0.6731    0.0000 C   0  0
   -6.0598    0.1820    0.0000 O   0  0
   -5.8755    1.4577    0.0000 C   0  0
   -6.6825    1.6294    0.0000 C   0  0
   -6.9373    2.4140    0.0000 C   0  0
   -6.3852    3.0271    0.0000 C   0  0
   -5.5783    2.8554    0.0000 C   0  0
   -5.3234    2.0708    0.0000 C   0  0
   -5.0258    3.4688    0.0000 C   0  0
   -5.2293    4.0966    0.0000 F   0  0
   -4.3804    3.3313    0.0000 F   0  0
   -4.5839    3.9590    0.0000 F   0  0
   -5.1069   -0.8950    0.0000 C   0  0
   -4.8520   -1.6797    0.0000 C   0  0
   -4.0451   -1.8513    0.0000 C   0  0
   -3.8413   -2.4790    0.0000 C   0  0
   -4.4439    0.9119    0.0000 H   0  0
    1.4311   -1.3737    0.0000 H   0  0
  1  2  1  0
  2  3  1  0
  2 35  1  0
  3  4  2  0
  4  5  1  0
  5  6  2  0
  6  7  1  0
  7  8  2  0
  8  3  1  0
  8  9  1  0
  9 10  2  0
 10 11  1  0
 11  7  1  0
 11 12  1  0
 12 13  1  0
 13 14  1  0
 14 15  2  0
 15 16  1  0
 16 17  1  0
 16 30  2  0
 17 18  1  0
 17 34  1  0
 18 19  2  0
 18 20  1  0
 20 21  2  0
 21 22  1  0
 22 23  2  0
 23 24  1  0
 24 25  2  0
 24 26  1  0
 25 20  1  0
 26 27  1  0
 26 28  1  0
 26 29  1  0
 30 31  1  0
 31 32  2  0
 32 14  1  0
 32 33  1  0
M  END
> <CMPD_CHEMBLID>
CHEMBL550623

> <STANDARD_TYPE>
IC50

> <RELATION>
=

> <STANDARD_VALUE>
96000

> <STANDARD_UNITS>
nM

> <Molecular_Weight>
454.44765

$$$$

  SciTegic11272012012D

 24 26  0  0  0  0            999 V2000
    2.7135   -1.7373    0.0000 O   0  0
    2.1413   -2.0663    0.0000 C   0  0
    1.4273   -1.6521    0.0000 C   0  0
    1.4285   -0.8267    0.0000 C   0  0
    0.7144   -0.4125    0.0000 N   0  0
    0.7144    0.4125    0.0000 C   0  0
    0.0000    0.8250    0.0000 C   0  0
   -0.7144    0.4125    0.0000 O   0  0
   -0.7144   -0.4125    0.0000 C   0  0
    0.0000   -0.8250    0.0000 C   0  0
    2.1401   -2.8918    0.0000 C   0  0
    2.8532   -3.3068    0.0000 C   0  0
    2.8503   -4.1318    0.0000 C   0  0
    2.1344   -4.5418    0.0000 C   0  0
    2.1299   -5.3673    0.0000 O   0  0
    1.4130   -5.7765    0.0000 C   0  0
    1.4084   -6.6019    0.0000 C   0  0
    0.6926   -7.0120    0.0000 C   0  0
    0.6897   -7.8370    0.0000 C   0  0
    1.4027   -8.2519    0.0000 C   0  0
    2.1186   -7.8420    0.0000 C   0  0
    2.1215   -7.0170    0.0000 C   0  0
    1.4214   -4.1268    0.0000 C   0  0
    1.4242   -3.3019    0.0000 C   0  0
  1  2  2  0
  2  3  1  0
  2 11  1  0
  3  4  1  0
  4  5  1  0
  5  6  1  0
  6  7  1  0
  7  8  1  0
  8  9  1  0
  9 10  1  0
 10  5  1  0
 11 12  2  0
 12 13  1  0
 13 14  2  0
 14 15  1  0
 14 23  1  0
 15 16  1  0
 16 17  1  0
 17 18  2  0
 18 19  1  0
 19 20  2  0
 20 21  1  0
 21 22  2  0
 22 17  1  0
 23 24  2  0
 24 11  1  0
M  END
> <CMPD_CHEMBLID>
CHEMBL542893

> <STANDARD_TYPE>
IC50

> <RELATION>
>

> <STANDARD_VALUE>
100000

> <STANDARD_UNITS>
nM

> <Molecular_Weight>
325.40152

$$$$

  SciTegic11272012012D

 29 31  0  0  0  0            999 V2000
    2.1404   -2.7263    0.0000 C   0  0
    2.1413   -2.0663    0.0000 C   0  0
    1.4273   -1.6521    0.0000 O   0  0
    1.4285   -0.8267    0.0000 C   0  0
    2.0006   -0.4977    0.0000 O   0  0
    0.7144   -0.4125    0.0000 C   0  0
    0.7144    0.4125    0.0000 C   0  0
    0.0000    0.8250    0.0000 C   0  0
   -0.7144    0.4125    0.0000 N   0  0
   -1.4302    0.8237    0.0000 C   0  0
   -2.1444    0.4100    0.0000 C   0  0
   -2.8601    0.8213    0.0000 C   0  0
   -2.8613    1.4813    0.0000 O   0  0
   -3.5744    0.4075    0.0000 C   0  0
   -4.2904    0.8175    0.0000 C   0  0
   -5.0034    0.4025    0.0000 C   0  0
   -5.0005   -0.4225    0.0000 C   0  0
   -5.7131   -0.8391    0.0000 O   0  0
   -5.7091   -1.6646    0.0000 C   0  0
   -6.4217   -2.0812    0.0000 C   0  0
   -6.4188   -2.9062    0.0000 C   0  0
   -7.1319   -3.3212    0.0000 C   0  0
   -7.8477   -2.9112    0.0000 C   0  0
   -7.8506   -2.0862    0.0000 C   0  0
   -7.1376   -1.6713    0.0000 C   0  0
   -4.2846   -0.8325    0.0000 C   0  0
   -3.5716   -0.4175    0.0000 C   0  0
   -0.7144   -0.4125    0.0000 C   0  0
    0.0000   -0.8250    0.0000 C   0  0
  1  2  1  0
  2  3  1  0
  3  4  1  0
  4  5  2  0
  4  6  1  0
  6  7  1  0
  7  8  1  0
  8  9  1  0
  9 10  1  0
  9 28  1  0
 10 11  1  0
 11 12  1  0
 12 13  2  0
 12 14  1  0
 14 15  2  0
 15 16  1  0
 16 17  2  0
 17 18  1  0
 17 26  1  0
 18 19  1  0
 19 20  1  0
 20 21  2  0
 21 22  1  0
 22 23  2  0
 23 24  1  0
 24 25  2  0
 25 20  1  0
 26 27  2  0
 27 14  1  0
 28 29  1  0
 29  6  1  0
M  END
> <CMPD_CHEMBLID>
CHEMBL542891

> <STANDARD_TYPE>
IC50

> <RELATION>
>

> <STANDARD_VALUE>
100000

> <STANDARD_UNITS>
nM

> <Molecular_Weight>
395.49136

$$$$

  SciTegic11272012012D

 31 32  0  0  0  0            999 V2000
    0.1409   -3.2207    0.0000 C   0  0
    0.7123   -2.8906    0.0000 N   0  0
    1.2839   -3.2206    0.0000 C   0  0
    0.7126   -2.0651    0.0000 C   0  0
    1.4273   -1.6521    0.0000 C   0  0
    2.1413   -2.0663    0.0000 C   0  0
    2.1402   -2.8918    0.0000 N   0  0
    2.8542   -3.3060    0.0000 N   0  0
    2.8530   -4.1314    0.0000 C   0  0
    2.2808   -4.4604    0.0000 O   0  0
    3.5670   -4.5456    0.0000 N   0  0
    1.4285   -0.8267    0.0000 C   0  0
    2.0006   -0.4977    0.0000 O   0  0
    0.7144   -0.4125    0.0000 C   0  0
    0.7144    0.4125    0.0000 C   0  0
    0.0000    0.8250    0.0000 C   0  0
   -0.7144    0.4125    0.0000 C   0  0
   -1.4302    0.8237    0.0000 O   0  0
   -2.1444    0.4100    0.0000 C   0  0
   -2.8602    0.8213    0.0000 C   0  0
   -3.5747    0.4088    0.0000 C   0  0
   -4.2892    0.8213    0.0000 C   0  0
   -4.2892    1.6463    0.0000 C   0  0
   -3.5747    2.0588    0.0000 C   0  0
   -2.8602    1.6463    0.0000 C   0  0
   -0.7144   -0.4125    0.0000 C   0  0
    0.0000   -0.8250    0.0000 C   0  0
    3.5662   -5.0956    0.0000 H   0  0
    4.0438   -4.2715    0.0000 H   0  0
    3.3310   -3.0318    0.0000 H   0  0
    1.6634   -3.1660    0.0000 H   0  0
  1  2  1  0
  2  3  1  0
  2  4  1  0
  4  5  1  0
  5  6  1  0
  5 12  1  0
  6  7  1  0
  7  8  1  0
  7 31  1  0
  8  9  1  0
  8 30  1  0
  9 10  2  0
  9 11  1  0
 11 28  1  0
 11 29  1  0
 12 13  2  0
 12 14  1  0
 14 15  2  0
 15 16  1  0
 16 17  2  0
 17 18  1  0
 17 26  1  0
 18 19  1  0
 19 20  1  0
 20 21  2  0
 21 22  1  0
 22 23  2  0
 23 24  1  0
 24 25  2  0
 25 20  1  0
 26 27  2  0
 27 14  1  0
M  END
> <CMPD_CHEMBLID>
CHEMBL541307

> <STANDARD_TYPE>
IC50

> <RELATION>
>

> <STANDARD_VALUE>
100000

> <STANDARD_UNITS>
nM

> <Molecular_Weight>
370.44544

$$$$

  SciTegic11272012012D

 29 32  0  0  0  0            999 V2000
    0.5982   -5.2244    0.0000 Cl  0  0
    0.3922   -4.5974    0.0000 C   0  0
   -0.4154   -4.4285    0.0000 C   0  0
   -0.6729   -3.6447    0.0000 C   0  0
   -0.1229   -3.0298    0.0000 C   0  0
   -0.3790   -2.2450    0.0000 C   0  0
    0.1713   -1.6316    0.0000 N   0  0
    0.9918   -1.7178    0.0000 C   0  0
    1.3273   -0.9642    0.0000 C   0  0
    2.1337   -0.7943    0.0000 C   0  0
    2.6853   -1.4085    0.0000 C   0  0
    3.4930   -1.2383    0.0000 C   0  0
    3.6980   -0.6109    0.0000 O   0  0
    4.0446   -1.8525    0.0000 N   0  0
    4.8524   -1.6824    0.0000 C   0  0
    5.4046   -2.2953    0.0000 C   0  0
    6.2115   -2.1237    0.0000 C   0  0
    6.4663   -1.3390    0.0000 N   0  0
    5.9142   -0.7260    0.0000 C   0  0
    5.1073   -0.8977    0.0000 C   0  0
    0.7145   -0.4125    0.0000 C   0  0
    0.7145    0.4125    0.0000 C   0  0
    0.0000    0.8250    0.0000 C   0  0
   -0.7145    0.4125    0.0000 C   0  0
   -0.7145   -0.4125    0.0000 C   0  0
    0.0000   -0.8250    0.0000 C   0  0
    0.6847   -3.1987    0.0000 C   0  0
    0.9422   -3.9825    0.0000 C   0  0
    3.8739   -2.3753    0.0000 H   0  0
  1  2  1  0
  2  3  2  0
  3  4  1  0
  4  5  2  0
  5  6  1  0
  5 27  1  0
  6  7  1  0
  7  8  1  0
  8  9  2  0
  9 10  1  0
  9 21  1  0
 10 11  1  0
 11 12  1  0
 12 13  2  0
 12 14  1  0
 14 15  1  0
 14 29  1  0
 15 16  2  0
 16 17  1  0
 17 18  2  0
 18 19  1  0
 19 20  2  0
 20 15  1  0
 21 22  2  0
 22 23  1  0
 23 24  2  0
 24 25  1  0
 25 26  2  0
 26  7  1  0
 26 21  1  0
 27 28  2  0
 28  2  1  0
M  END
> <CMPD_CHEMBLID>
CHEMBL185140

> <STANDARD_TYPE>
IC50

> <RELATION>
>

> <STANDARD_VALUE>
100000

> <STANDARD_UNITS>
nM

> <Molecular_Weight>
389.8774

$$$$

  SciTegic11272012012D

 33 35  0  0  0  0            999 V2000
    2.7167   -0.7388    0.0000 C   0  0
    2.1444   -0.4100    0.0000 O   0  0
    1.4302   -0.8237    0.0000 C   0  0
    1.4313   -1.4837    0.0000 O   0  0
    0.7144   -0.4125    0.0000 C   0  0
    0.7144    0.4125    0.0000 C   0  0
    0.0000    0.8250    0.0000 C   0  0
   -0.7144    0.4125    0.0000 C   0  0
   -0.7144   -0.4125    0.0000 C   0  0
    0.0000   -0.8250    0.0000 C   0  0
   -0.0017   -1.6504    0.0000 S   0  0
   -0.7171   -2.0622    0.0000 C   0  0
   -0.7188   -2.8876    0.0000 C   0  0
   -0.0038   -3.3001    0.0000 C   0  0
    0.7111   -2.8876    0.0000 N   0  0
    1.2828   -3.2174    0.0000 C   0  0
    0.7111   -2.2276    0.0000 C   0  0
   -1.4343   -3.2993    0.0000 C   0  0
   -2.0053   -2.9683    0.0000 O   0  0
   -1.4360   -4.1248    0.0000 C   0  0
   -2.1504   -4.5373    0.0000 C   0  0
   -2.1504   -5.3623    0.0000 C   0  0
   -1.4360   -5.7748    0.0000 C   0  0
   -1.4343   -6.6003    0.0000 O   0  0
   -0.7189   -7.0120    0.0000 C   0  0
   -0.7172   -7.8374    0.0000 C   0  0
   -0.0027   -8.2500    0.0000 C   0  0
   -0.0027   -9.0750    0.0000 C   0  0
   -0.7172   -9.4875    0.0000 C   0  0
   -1.4317   -9.0750    0.0000 C   0  0
   -1.4317   -8.2500    0.0000 C   0  0
   -0.7215   -5.3623    0.0000 C   0  0
   -0.7215   -4.5373    0.0000 C   0  0
  1  2  1  0
  2  3  1  0
  3  4  2  0
  3  5  1  0
  5  6  2  0
  6  7  1  0
  7  8  2  0
  8  9  1  0
  9 10  2  0
 10  5  1  0
 10 11  1  0
 11 12  1  0
 12 13  1  0
 13 14  1  0
 13 18  1  0
 14 15  1  0
 15 16  1  0
 15 17  1  0
 18 19  2  0
 18 20  1  0
 20 21  2  0
 21 22  1  0
 22 23  2  0
 23 24  1  0
 23 32  1  0
 24 25  1  0
 25 26  1  0
 26 27  2  0
 27 28  1  0
 28 29  2  0
 29 30  1  0
 30 31  2  0
 31 26  1  0
 32 33  2  0
 33 20  1  0
M  END
> <CMPD_CHEMBLID>
CHEMBL538757

> <STANDARD_TYPE>
IC50

> <RELATION>
>

> <STANDARD_VALUE>
100000

> <STANDARD_UNITS>
nM

> <Molecular_Weight>
463.58846

$$$$

  SciTegic11272012012D

 31 33  0  0  0  0            999 V2000
    3.4278   -0.4978    0.0000 C   0  0
    2.8563   -0.8279    0.0000 N   0  0
    2.2848   -0.4979    0.0000 C   0  0
    2.8561   -1.6534    0.0000 C   0  0
    2.1413   -2.0663    0.0000 C   0  0
    1.4273   -1.6521    0.0000 C   0  0
    1.4285   -0.8267    0.0000 S   0  0
    0.7144   -0.4125    0.0000 C   0  0
    0.7144    0.4125    0.0000 C   0  0
    0.0000    0.8250    0.0000 C   0  0
   -0.7144    0.4125    0.0000 C   0  0
   -1.2861    0.7425    0.0000 C   0  0
   -0.7144   -0.4125    0.0000 C   0  0
   -1.2861   -0.7425    0.0000 C   0  0
    0.0000   -0.8250    0.0000 C   0  0
    2.1402   -2.8918    0.0000 C   0  0
    1.5680   -3.2208    0.0000 O   0  0
    2.8542   -3.3060    0.0000 C   0  0
    2.8542   -4.1310    0.0000 C   0  0
    3.5687   -4.5435    0.0000 C   0  0
    4.2831   -4.1310    0.0000 C   0  0
    4.9988   -4.5423    0.0000 O   0  0
    5.7131   -4.1286    0.0000 C   0  0
    6.4288   -4.5399    0.0000 C   0  0
    7.1433   -4.1274    0.0000 C   0  0
    7.8578   -4.5399    0.0000 C   0  0
    7.8578   -5.3649    0.0000 C   0  0
    7.1433   -5.7774    0.0000 C   0  0
    6.4289   -5.3649    0.0000 C   0  0
    4.2832   -3.3060    0.0000 C   0  0
    3.5687   -2.8935    0.0000 C   0  0
  1  2  1  0
  2  3  1  0
  2  4  1  0
  4  5  1  0
  5  6  1  0
  5 16  1  0
  6  7  1  0
  7  8  1  0
  8  9  2  0
  9 10  1  0
 10 11  2  0
 11 12  1  0
 11 13  1  0
 13 14  1  0
 13 15  2  0
 15  8  1  0
 16 17  2  0
 16 18  1  0
 18 19  2  0
 19 20  1  0
 20 21  2  0
 21 22  1  0
 21 30  1  0
 22 23  1  0
 23 24  1  0
 24 25  2  0
 25 26  1  0
 26 27  2  0
 27 28  1  0
 28 29  2  0
 29 24  1  0
 30 31  2  0
 31 18  1  0
M  END
> <CMPD_CHEMBLID>
CHEMBL538507

> <STANDARD_TYPE>
IC50

> <RELATION>
>

> <STANDARD_VALUE>
100000

> <STANDARD_UNITS>
nM

> <Molecular_Weight>
433.60554

$$$$

  SciTegic11272012012D

 16 17  0  0  0  0            999 V2000
   -0.5636   -3.5211    0.0000 C   0  0
   -0.1229   -3.0298    0.0000 O   0  0
   -0.3790   -2.2450    0.0000 C   0  0
   -1.0247   -2.1088    0.0000 O   0  0
    0.1713   -1.6316    0.0000 C   0  0
    0.9918   -1.7179    0.0000 C   0  0
    1.4053   -2.4306    0.0000 N   0  0
    1.3273   -0.9642    0.0000 N   0  0
    0.7145   -0.4125    0.0000 C   0  0
    0.7145    0.4125    0.0000 C   0  0
    0.0000    0.8250    0.0000 C   0  0
   -0.7145    0.4125    0.0000 C   0  0
   -0.7145   -0.4125    0.0000 C   0  0
    0.0000   -0.8250    0.0000 N   0  0
    1.9553   -2.4298    0.0000 H   0  0
    1.1312   -2.9074    0.0000 H   0  0
  1  2  1  0
  2  3  1  0
  3  4  2  0
  3  5  1  0
  5  6  2  0
  6  7  1  0
  6  8  1  0
  7 15  1  0
  7 16  1  0
  8  9  2  0
  9 10  1  0
 10 11  2  0
 11 12  1  0
 12 13  2  0
 13 14  1  0
 14  5  1  0
 14  9  1  0
M  END
> <CMPD_CHEMBLID>
CHEMBL1981492

> <STANDARD_TYPE>
Ki

> <RELATION>
=

> <STANDARD_VALUE>
100000

> <STANDARD_UNITS>
nM

> <Molecular_Weight>
191.18666

$$$$

  SciTegic11272012012D

 32 34  0  0  0  0            999 V2000
    1.4302   -0.8237    0.0000 N   0  0
    0.7144   -0.4125    0.0000 C   0  0
    0.7144    0.4125    0.0000 C   0  0
    0.0000    0.8250    0.0000 C   0  0
   -0.7144    0.4125    0.0000 C   0  0
   -0.7144   -0.4125    0.0000 C   0  0
    0.0000   -0.8250    0.0000 C   0  0
   -0.0017   -1.6504    0.0000 N   0  0
   -0.7171   -2.0622    0.0000 C   0  0
   -1.2882   -1.7312    0.0000 O   0  0
   -0.7188   -2.8876    0.0000 C   0  0
   -1.4333   -3.3002    0.0000 C   0  0
   -1.4333   -4.1252    0.0000 C   0  0
   -0.7188   -4.5377    0.0000 C   0  0
   -0.7172   -5.3631    0.0000 C   0  0
   -0.0018   -5.7748    0.0000 N   0  0
   -0.0001   -6.6003    0.0000 C   0  0
    0.7154   -7.0120    0.0000 O   0  0
    0.7171   -7.8375    0.0000 C   0  0
    0.1461   -8.1684    0.0000 O   0  0
    1.4325   -8.2492    0.0000 C   0  0
    1.4354   -9.0742    0.0000 C   0  0
    2.1513   -9.4843    0.0000 C   0  0
    2.8643   -9.0693    0.0000 C   0  0
    2.8615   -8.2443    0.0000 N   0  0
    2.1456   -7.8343    0.0000 C   0  0
   -0.0044   -4.1252    0.0000 C   0  0
   -0.0043   -3.3002    0.0000 C   0  0
    0.4741   -5.4990    0.0000 H   0  0
    0.4742   -1.9263    0.0000 H   0  0
    1.9061   -0.5481    0.0000 H   0  0
    1.4312   -1.3737    0.0000 H   0  0
  1  2  1  0
  1 31  1  0
  1 32  1  0
  2  3  2  0
  3  4  1  0
  4  5  2  0
  5  6  1  0
  6  7  2  0
  7  2  1  0
  7  8  1  0
  8  9  1  0
  8 30  1  0
  9 10  2  0
  9 11  1  0
 11 12  2  0
 12 13  1  0
 13 14  2  0
 14 15  1  0
 14 27  1  0
 15 16  1  0
 16 17  1  0
 16 29  1  0
 17 18  1  0
 18 19  1  0
 19 20  2  0
 19 21  1  0
 21 22  2  0
 22 23  1  0
 23 24  2  0
 24 25  1  0
 25 26  2  0
 26 21  1  0
 27 28  2  0
 28 11  1  0
M  END
> <CMPD_CHEMBLID>
CHEMBL514671

> <STANDARD_TYPE>
IC50

> <RELATION>
>

> <STANDARD_VALUE>
100000

> <STANDARD_UNITS>
nM

> <Molecular_Weight>
376.4085

$$$$

  SciTegic11272012012D

 13 14  0  0  0  0            999 V2000
    1.2861   -0.7425    0.0000 C   0  0
    0.7145   -0.4125    0.0000 C   0  0
    0.7145    0.4125    0.0000 C   0  0
    0.0000    0.8250    0.0000 N   0  0
    0.0000    1.6500    0.0000 C   0  0
   -0.7145    2.0625    0.0000 C   0  0
   -0.7145    2.7226    0.0000 O   0  0
   -1.4290    1.6500    0.0000 N   0  0
   -1.4290    0.8250    0.0000 N   0  0
   -0.7145    0.4125    0.0000 C   0  0
   -0.7145   -0.4125    0.0000 C   0  0
    0.0000   -0.8250    0.0000 C   0  0
   -1.9053    1.9250    0.0000 H   0  0
  1  2  1  0
  2  3  2  0
  3  4  1  0
  4  5  1  0
  5  6  1  0
  6  7  2  0
  6  8  1  0
  8  9  1  0
  8 13  1  0
  9 10  2  0
 10  4  1  0
 10 11  1  0
 11 12  2  0
 12  2  1  0
M  END
> <CMPD_CHEMBLID>
CHEMBL1964718

> <STANDARD_TYPE>
Ki

> <RELATION>
=

> <STANDARD_VALUE>
100000

> <STANDARD_UNITS>
nM

> <Molecular_Weight>
163.17656

$$$$

  SciTegic11272012012D

 29 33  0  0  0  0            999 V2000
    1.8786    0.9146    0.0000 N   0  0
    2.4288    0.2993    0.0000 C   0  0
    3.2361    0.4696    0.0000 N   0  0
    3.7872   -0.1443    0.0000 C   0  0
    3.5311   -0.9285    0.0000 N   0  0
    2.7239   -1.0989    0.0000 C   0  0
    2.1727   -0.4850    0.0000 C   0  0
    1.4293   -0.8252    0.0000 C   0  0
    1.5040   -1.6398    0.0000 N   0  0
    2.3107   -1.8125    0.0000 N   0  0
    2.6455   -2.5670    0.0000 C   0  0
    2.2842   -3.2979    0.0000 C   0  0
    2.8818   -3.8668    0.0000 C   0  0
    3.6074   -3.4743    0.0000 C   0  0
    3.4583   -2.6628    0.0000 C   0  0
    0.7145   -0.4125    0.0000 C   0  0
    0.7145    0.4125    0.0000 C   0  0
    0.0000    0.8250    0.0000 C   0  0
   -0.7145    0.4125    0.0000 C   0  0
   -1.4290    0.8250    0.0000 N   0  0
   -2.1434    0.4125    0.0000 C   0  0
   -2.7150    0.7425    0.0000 O   0  0
   -2.1434   -0.4125    0.0000 C   0  0
   -1.4290   -0.8250    0.0000 C   0  0
   -0.7145   -0.4125    0.0000 C   0  0
    0.0000   -0.8250    0.0000 C   0  0
   -1.4290    1.3750    0.0000 H   0  0
    2.0501    1.4372    0.0000 H   0  0
    1.3402    0.8020    0.0000 H   0  0
  1  2  1  0
  1 28  1  0
  1 29  1  0
  2  3  2  0
  3  4  1  0
  4  5  2  0
  5  6  1  0
  6  7  2  0
  7  2  1  0
  7  8  1  0
  8  9  2  0
  8 16  1  0
  9 10  1  0
 10  6  1  0
 10 11  1  0
 11 12  1  0
 12 13  1  0
 13 14  1  0
 14 15  1  0
 15 11  1  0
 16 17  2  0
 17 18  1  0
 18 19  2  0
 19 20  1  0
 20 21  1  0
 20 27  1  0
 21 22  2  0
 21 23  1  0
 23 24  2  0
 24 25  1  0
 25 19  1  0
 25 26  2  0
 26 16  1  0
M  END
> <CMPD_CHEMBLID>
CHEMBL1241864

> <STANDARD_TYPE>
IC50

> <RELATION>
=

> <STANDARD_VALUE>
100000

> <STANDARD_UNITS>
nM

> <Molecular_Weight>
346.38582

$$$$

  SciTegic11272012012D

 14 14  0  0  0  0            999 V2000
    2.7111   -3.2231    0.0000 C   0  0
    2.1402   -2.8919    0.0000 N   0  0
    1.5680   -3.2209    0.0000 C   0  0
    2.1414   -2.0664    0.0000 C   0  0
    1.4273   -1.6522    0.0000 C   0  0
    0.8552   -1.9812    0.0000 C   0  0
    1.4285   -0.8267    0.0000 C   0  0
    2.0007   -0.4977    0.0000 O   0  0
    0.7145   -0.4125    0.0000 C   0  0
    0.7145    0.4125    0.0000 C   0  0
    0.0000    0.8250    0.0000 C   0  0
   -0.7145    0.4125    0.0000 C   0  0
   -0.7145   -0.4125    0.0000 C   0  0
    0.0000   -0.8250    0.0000 C   0  0
  1  2  1  0
  2  3  1  0
  2  4  1  0
  4  5  1  0
  5  6  2  0
  5  7  1  0
  7  8  2  0
  7  9  1  0
  9 10  2  0
 10 11  1  0
 11 12  2  0
 12 13  1  0
 13 14  2  0
 14  9  1  0
M  END
> <CMPD_CHEMBLID>
CHEMBL468975

> <STANDARD_TYPE>
IC50

> <RELATION>
>

> <STANDARD_VALUE>
100000

> <STANDARD_UNITS>
nM

> <Molecular_Weight>
189.2536

$$$$

  SciTegic11272012012D

 24 27  0  0  0  0            999 V2000
    2.5784   -2.4158    0.0000 C   0  0
    2.3107   -1.8125    0.0000 N   0  0
    1.5040   -1.6398    0.0000 N   0  0
    1.4293   -0.8252    0.0000 C   0  0
    0.7145   -0.4125    0.0000 C   0  0
    0.7145    0.4125    0.0000 C   0  0
    0.0000    0.8250    0.0000 C   0  0
   -0.7145    0.4125    0.0000 C   0  0
   -1.4290    0.8250    0.0000 O   0  0
   -2.1434    0.4125    0.0000 C   0  0
   -2.1434   -0.4125    0.0000 C   0  0
   -1.4290   -0.8250    0.0000 C   0  0
   -1.4290   -1.4850    0.0000 O   0  0
   -0.7145   -0.4125    0.0000 C   0  0
    0.0000   -0.8250    0.0000 C   0  0
    2.1727   -0.4850    0.0000 C   0  0
    2.4288    0.2993    0.0000 C   0  0
    1.8786    0.9146    0.0000 N   0  0
    3.2361    0.4696    0.0000 N   0  0
    3.7872   -0.1443    0.0000 C   0  0
    3.5311   -0.9285    0.0000 N   0  0
    2.7239   -1.0989    0.0000 C   0  0
    2.0501    1.4372    0.0000 H   0  0
    1.3402    0.8020    0.0000 H   0  0
  1  2  1  0
  2  3  1  0
  3  4  2  0
  4  5  1  0
  4 16  1  0
  5  6  2  0
  6  7  1  0
  7  8  2  0
  8  9  1  0
  9 10  1  0
 10 11  2  0
 11 12  1  0
 12 13  2  0
 12 14  1  0
 14  8  1  0
 14 15  2  0
 15  5  1  0
 16 17  2  0
 17 18  1  0
 17 19  1  0
 18 23  1  0
 18 24  1  0
 19 20  2  0
 20 21  1  0
 21 22  2  0
 22  2  1  0
 22 16  1  0
M  END
> <CMPD_CHEMBLID>
CHEMBL1242117

> <STANDARD_TYPE>
IC50

> <RELATION>
=

> <STANDARD_VALUE>
100000

> <STANDARD_UNITS>
nM

> <Molecular_Weight>
293.28014

$$$$

  SciTegic11272012012D

 22 23  0  0  0  0            999 V2000
    2.2308   -2.4295    0.0000 N   0  0
    1.4053   -2.4306    0.0000 C   0  0
    1.0763   -3.0028    0.0000 O   0  0
    0.9918   -1.7179    0.0000 C   0  0
    1.3273   -0.9642    0.0000 S   0  0
    0.7145   -0.4125    0.0000 C   0  0
    0.7145    0.4125    0.0000 C   0  0
    0.0000    0.8250    0.0000 C   0  0
   -0.7145    0.4125    0.0000 C   0  0
   -0.7145   -0.4125    0.0000 C   0  0
    0.0000   -0.8250    0.0000 C   0  0
    0.1713   -1.6316    0.0000 N   0  3
   -0.2704   -2.1221    0.0000 O   0  5
   -1.4294    0.8252    0.0000 C   0  0
   -1.4298    1.4853    0.0000 F   0  0
   -2.0008    0.4951    0.0000 F   0  0
   -2.0011    1.1550    0.0000 F   0  0
    1.4285    0.8267    0.0000 N   0  3
    1.4276    1.4867    0.0000 O   0  0
    2.0007    0.4977    0.0000 O   0  5
    2.5068   -2.9052    0.0000 H   0  0
    2.5050   -1.9527    0.0000 H   0  0
  1  2  1  0
  1 21  1  0
  1 22  1  0
  2  3  2  0
  2  4  1  0
  4  5  1  0
  5  6  1  0
  6  7  2  0
  7  8  1  0
  7 18  1  0
  8  9  2  0
  9 10  1  0
  9 14  1  0
 10 11  2  0
 11  6  1  0
 11 12  1  0
 12  4  2  0
 12 13  1  0
 14 15  1  0
 14 16  1  0
 14 17  1  0
 18 19  2  0
 18 20  1  0
M  CHG  4  12   1  13  -1  18   1  20  -1
M  END
> <CMPD_CHEMBLID>
CHEMBL476124

> <STANDARD_TYPE>
IC50

> <RELATION>
>

> <STANDARD_VALUE>
100000

> <STANDARD_UNITS>
nM

> <Molecular_Weight>
307.20597

$$$$

  SciTegic11272012012D

 23 26  0  0  0  0            999 V2000
    2.5784   -2.4158    0.0000 C   0  0
    2.3107   -1.8125    0.0000 N   0  0
    1.5040   -1.6398    0.0000 N   0  0
    1.4293   -0.8252    0.0000 C   0  0
    0.7145   -0.4125    0.0000 C   0  0
    0.7145    0.4125    0.0000 C   0  0
    0.0000    0.8250    0.0000 C   0  0
   -0.7145    0.4125    0.0000 C   0  0
   -1.4290    0.8250    0.0000 N   0  0
   -2.1434    0.4125    0.0000 C   0  0
   -2.1434   -0.4125    0.0000 C   0  0
   -1.4290   -0.8250    0.0000 C   0  0
   -0.7145   -0.4125    0.0000 C   0  0
    0.0000   -0.8250    0.0000 C   0  0
    2.1727   -0.4850    0.0000 C   0  0
    2.4288    0.2993    0.0000 C   0  0
    1.8786    0.9146    0.0000 N   0  0
    3.2361    0.4696    0.0000 N   0  0
    3.7872   -0.1443    0.0000 C   0  0
    3.5311   -0.9285    0.0000 N   0  0
    2.7239   -1.0989    0.0000 C   0  0
    2.0501    1.4372    0.0000 H   0  0
    1.3402    0.8020    0.0000 H   0  0
  1  2  1  0
  2  3  1  0
  3  4  2  0
  4  5  1  0
  4 15  1  0
  5  6  2  0
  6  7  1  0
  7  8  2  0
  8  9  1  0
  9 10  2  0
 10 11  1  0
 11 12  2  0
 12 13  1  0
 13  8  1  0
 13 14  2  0
 14  5  1  0
 15 16  2  0
 16 17  1  0
 16 18  1  0
 17 22  1  0
 17 23  1  0
 18 19  2  0
 19 20  1  0
 20 21  2  0
 21  2  1  0
 21 15  1  0
M  END
> <CMPD_CHEMBLID>
CHEMBL1242756

> <STANDARD_TYPE>
IC50

> <RELATION>
=

> <STANDARD_VALUE>
100000

> <STANDARD_UNITS>
nM

> <Molecular_Weight>
276.29598

$$$$

  SciTegic11272012012D

 23 24  0  0  0  0            999 V2000
    1.4302   -0.8237    0.0000 O   0  0
    0.7144   -0.4125    0.0000 C   0  0
    0.7144    0.4125    0.0000 C   0  0
    0.0000    0.8250    0.0000 C   0  0
   -0.7144    0.4125    0.0000 C   0  0
   -1.2861    0.7425    0.0000 Cl  0  0
   -0.7144   -0.4125    0.0000 C   0  0
    0.0000   -0.8250    0.0000 C   0  0
   -0.0017   -1.6504    0.0000 C   0  0
    0.5693   -1.9814    0.0000 O   0  0
   -0.7171   -2.0622    0.0000 N   0  0
   -0.7188   -2.8876    0.0000 C   0  0
   -0.0043   -3.3002    0.0000 C   0  0
   -0.0044   -4.1252    0.0000 C   0  0
   -0.7188   -4.5377    0.0000 C   0  0
   -1.4333   -4.1252    0.0000 C   0  0
   -1.4333   -3.3002    0.0000 C   0  0
   -2.0049   -2.9702    0.0000 Cl  0  0
   -0.7206   -5.3631    0.0000 N   0  3
   -1.2927   -5.6923    0.0000 O   0  0
   -0.1496   -5.6941    0.0000 O   0  5
   -1.1930   -1.7863    0.0000 H   0  0
    1.9061   -0.5481    0.0000 H   0  0
  1  2  1  0
  1 23  1  0
  2  3  2  0
  3  4  1  0
  4  5  2  0
  5  6  1  0
  5  7  1  0
  7  8  2  0
  8  2  1  0
  8  9  1  0
  9 10  2  0
  9 11  1  0
 11 12  1  0
 11 22  1  0
 12 13  2  0
 13 14  1  0
 14 15  2  0
 15 16  1  0
 15 19  1  0
 16 17  2  0
 17 12  1  0
 17 18  1  0
 19 20  2  0
 19 21  1  0
M  CHG  2  19   1  21  -1
M  END
> <CMPD_CHEMBLID>
CHEMBL1448

> <STANDARD_TYPE>
IC50

> <RELATION>
>

> <STANDARD_VALUE>
100000

> <STANDARD_UNITS>
nM

> <Molecular_Weight>
327.11962

$$$$

  SciTegic11272012012D

 29 31  0  0  0  0            999 V2000
    0.7124   -2.7251    0.0000 C   0  0
    0.7126   -2.0651    0.0000 C   0  0
    1.4273   -1.6521    0.0000 C   0  0
    2.1413   -2.0663    0.0000 C   0  0
    2.1402   -2.8918    0.0000 O   0  0
    1.4285   -0.8267    0.0000 N   0  0
    0.7144   -0.4125    0.0000 C   0  0
    0.7144    0.4125    0.0000 N   0  0
    0.0000    0.8250    0.0000 C   0  0
    0.0017    1.6504    0.0000 N   0  0
    0.7171    2.0622    0.0000 C   0  0
    0.7188    2.8876    0.0000 C   0  0
    1.4333    3.3002    0.0000 C   0  0
    1.4333    4.1252    0.0000 C   0  0
    0.7188    4.5377    0.0000 C   0  0
    0.0043    4.1252    0.0000 C   0  0
    0.0043    3.3002    0.0000 C   0  0
   -0.7144    0.4125    0.0000 C   0  0
   -1.4986    0.6674    0.0000 N   0  0
   -1.9836    0.0000    0.0000 C   0  0
   -1.4986   -0.6674    0.0000 N   0  0
   -1.7547   -1.4507    0.0000 C   0  0
   -2.4005   -1.5871    0.0000 C   0  0
   -1.3139   -1.9418    0.0000 C   0  0
   -0.7144   -0.4125    0.0000 C   0  0
    0.0000   -0.8250    0.0000 N   0  0
   -0.4742    1.9263    0.0000 H   0  0
    1.9053   -0.5525    0.0000 H   0  0
    2.6159   -3.1678    0.0000 H   0  0
  1  2  1  0
  2  3  1  0
  3  4  1  0
  3  6  1  0
  4  5  1  0
  5 29  1  0
  6  7  1  0
  6 28  1  0
  7  8  2  0
  8  9  1  0
  9 10  1  0
  9 18  2  0
 10 11  1  0
 10 27  1  0
 11 12  1  0
 12 13  2  0
 13 14  1  0
 14 15  2  0
 15 16  1  0
 16 17  2  0
 17 12  1  0
 18 19  1  0
 19 20  2  0
 20 21  1  0
 21 22  1  0
 21 25  1  0
 22 23  1  0
 22 24  1  0
 25 18  1  0
 25 26  2  0
 26  7  1  0
M  END
> <CMPD_CHEMBLID>
CHEMBL14762

> <STANDARD_TYPE>
IC50

> <RELATION>
>

> <STANDARD_VALUE>
100000

> <STANDARD_UNITS>
nM

> <Molecular_Weight>
354.44934

$$$$

  SciTegic11272012012D

 27 29  0  0  0  0            999 V2000
    2.1404   -2.7264    0.0000 F   0  0
    2.1413   -2.0663    0.0000 C   0  0
    2.7135   -1.7373    0.0000 F   0  0
    1.4273   -1.6521    0.0000 C   0  0
    0.8562   -1.3213    0.0000 F   0  0
    0.8551   -1.9812    0.0000 F   0  0
    1.4285   -0.8267    0.0000 O   0  0
    0.7144   -0.4125    0.0000 C   0  0
    0.7144    0.4125    0.0000 C   0  0
    0.0000    0.8250    0.0000 C   0  0
   -0.7144    0.4125    0.0000 C   0  0
   -0.7144   -0.4125    0.0000 C   0  0
   -1.4285   -0.8267    0.0000 N   0  0
   -1.4273   -1.6521    0.0000 C   0  0
   -2.1403   -2.0672    0.0000 N   0  0
   -2.1375   -2.8922    0.0000 C   0  0
   -1.4216   -3.3022    0.0000 C   0  0
   -0.7086   -2.8872    0.0000 C   0  0
   -0.7114   -2.0622    0.0000 N   0  0
    0.0077   -3.2975    0.0000 C   0  0
    0.0119   -4.1225    0.0000 C   0  0
    0.7285   -4.5314    0.0000 C   0  0
    1.4408   -4.1153    0.0000 N   0  0
    1.4367   -3.2903    0.0000 C   0  0
    0.7201   -2.8814    0.0000 C   0  0
    0.0000   -0.8250    0.0000 C   0  0
   -1.9053   -0.5525    0.0000 H   0  0
  1  2  1  0
  2  3  1  0
  2  4  1  0
  4  5  1  0
  4  6  1  0
  4  7  1  0
  7  8  1  0
  8  9  2  0
  9 10  1  0
 10 11  2  0
 11 12  1  0
 12 13  1  0
 12 26  2  0
 13 14  1  0
 13 27  1  0
 14 15  2  0
 15 16  1  0
 16 17  2  0
 17 18  1  0
 18 19  2  0
 18 20  1  0
 19 14  1  0
 20 21  2  0
 21 22  1  0
 22 23  2  0
 23 24  1  0
 24 25  2  0
 25 20  1  0
 26  8  1  0
M  END
> <CMPD_CHEMBLID>
CHEMBL55662

> <STANDARD_TYPE>
IC50

> <RELATION>
>

> <STANDARD_VALUE>
100000

> <STANDARD_UNITS>
nM

> <Molecular_Weight>
364.29699

$$$$

  SciTegic11272012012D

 23 24  0  0  0  0            999 V2000
    2.7111   -3.2230    0.0000 C   0  0
    2.1402   -2.8918    0.0000 N   0  0
    1.5680   -3.2208    0.0000 C   0  0
    2.1413   -2.0663    0.0000 C   0  0
    1.4273   -1.6521    0.0000 C   0  0
    1.4285   -0.8267    0.0000 C   0  0
    2.0006   -0.4977    0.0000 O   0  0
    0.7144   -0.4125    0.0000 C   0  0
    0.7144    0.4125    0.0000 C   0  0
    0.0000    0.8250    0.0000 C   0  0
   -0.7144    0.4125    0.0000 C   0  0
   -1.4285    0.8267    0.0000 O   0  0
   -1.4273    1.6521    0.0000 C   0  0
   -2.1413    2.0663    0.0000 C   0  0
   -2.1414    2.8913    0.0000 C   0  0
   -2.8558    3.3038    0.0000 C   0  0
   -3.5703    2.8914    0.0000 C   0  0
   -3.5703    2.0664    0.0000 C   0  0
   -2.8559    1.6538    0.0000 C   0  0
   -0.7144   -0.4125    0.0000 C   0  0
   -1.4285   -0.8267    0.0000 O   0  0
    0.0000   -0.8250    0.0000 C   0  0
   -1.4277   -1.3767    0.0000 H   0  0
  1  2  1  0
  2  3  1  0
  2  4  1  0
  4  5  1  0
  5  6  1  0
  6  7  2  0
  6  8  1  0
  8  9  2  0
  9 10  1  0
 10 11  2  0
 11 12  1  0
 11 20  1  0
 12 13  1  0
 13 14  1  0
 14 15  2  0
 15 16  1  0
 16 17  2  0
 17 18  1  0
 18 19  2  0
 19 14  1  0
 20 21  1  0
 20 22  2  0
 21 23  1  0
 22  8  1  0
M  END
> <CMPD_CHEMBLID>
CHEMBL552860

> <STANDARD_TYPE>
IC50

> <RELATION>
>

> <STANDARD_VALUE>
100000

> <STANDARD_UNITS>
nM

> <Molecular_Weight>
299.36424

$$$$

  SciTegic11272012012D

 33 35  0  0  0  0            999 V2000
    2.8661    1.4821    0.0000 C   0  0
    2.8636    0.8221    0.0000 C   0  0
    2.1475    0.4116    0.0000 O   0  0
    2.1445   -0.4139    0.0000 C   0  0
    2.8583   -0.8275    0.0000 C   0  0
    2.8570   -1.6525    0.0000 C   0  0
    2.1419   -2.0639    0.0000 C   0  0
    1.4281   -1.6502    0.0000 C   0  0
    1.4293   -0.8252    0.0000 C   0  0
    0.7144   -0.4125    0.0000 C   0  0
    0.7144    0.4125    0.0000 N   0  0
    0.0000    0.8250    0.0000 N   0  0
   -0.7144    0.4125    0.0000 C   0  0
   -0.7144   -0.4125    0.0000 C   0  0
    0.0000   -0.8250    0.0000 N   0  0
   -1.4986   -0.6674    0.0000 C   0  0
   -1.7025   -1.2951    0.0000 C   0  0
   -1.9836    0.0000    0.0000 N   0  0
   -1.4986    0.6674    0.0000 N   0  0
   -1.7025    1.2951    0.0000 C   0  0
    2.1405   -2.8893    0.0000 S   0  0
    1.5684   -3.2182    0.0000 O   0  0
    2.1392   -3.5493    0.0000 O   0  0
    2.8545   -3.3036    0.0000 N   0  0
    2.8532   -4.1291    0.0000 C   0  0
    3.4244   -4.4598    0.0000 C   0  0
    2.1380   -4.5411    0.0000 C   0  0
    2.1366   -5.3666    0.0000 O   0  0
    3.5831   -3.7103    0.0000 C   0  0
    4.2971   -4.1245    0.0000 O   0  0
    4.7741   -3.8508    0.0000 H   0  0
    1.6601   -5.6411    0.0000 H   0  0
    3.3313   -3.0295    0.0000 H   0  0
  1  2  1  0
  2  3  1  0
  3  4  1  0
  4  5  2  0
  5  6  1  0
  6  7  2  0
  7  8  1  0
  7 21  1  0
  8  9  2  0
  9  4  1  0
  9 10  1  0
 10 11  2  0
 11 12  1  0
 12 13  2  0
 13 14  1  0
 14 15  2  0
 14 16  1  0
 15 10  1  0
 16 17  1  0
 16 18  2  0
 18 19  1  0
 19 13  1  0
 19 20  1  0
 21 22  2  0
 21 23  2  0
 21 24  1  0
 24 25  1  0
 24 33  1  0
 25 26  1  0
 25 27  1  0
 25 29  1  0
 27 28  1  0
 28 32  1  0
 29 30  1  0
 30 31  1  0
M  END
> <CMPD_CHEMBLID>
CHEMBL3401463

> <STANDARD_TYPE>
IC50

> <RELATION>
>

> <STANDARD_VALUE>
100000

> <STANDARD_UNITS>
nM

> <Molecular_Weight>
436.48536

$$$$

  SciTegic11272012012D

 22 22  0  0  0  0            999 V2000
    4.9900   -7.0212    0.0000 O   0  0
    4.2764   -6.6072    0.0000 N   0  0
    4.2775   -5.7822    0.0000 C   0  0
    4.8494   -5.4534    0.0000 O   0  0
    3.5639   -5.3682    0.0000 C   0  0
    3.5651   -4.5432    0.0000 C   0  0
    2.8515   -4.1292    0.0000 C   0  0
    2.8526   -3.3042    0.0000 C   0  0
    2.1390   -2.8902    0.0000 C   0  0
    2.1402   -2.0652    0.0000 C   0  0
    1.4265   -1.6513    0.0000 C   0  0
    0.8547   -1.9801    0.0000 O   0  0
    1.4278   -0.8263    0.0000 N   0  0
    0.7141   -0.4123    0.0000 C   0  0
    0.7141    0.4123    0.0000 C   0  0
    0.0000    0.8246    0.0000 C   0  0
   -0.7141    0.4123    0.0000 C   0  0
   -0.7141   -0.4123    0.0000 C   0  0
    0.0000   -0.8246    0.0000 C   0  0
    1.9043   -0.5522    0.0000 H   0  0
    3.7998   -6.8812    0.0000 H   0  0
    4.9892   -7.5709    0.0000 H   0  0
  1  2  1  0
  1 22  1  0
  2  3  1  0
  2 21  1  0
  3  4  2  0
  3  5  1  0
  5  6  1  0
  6  7  1  0
  7  8  1  0
  8  9  1  0
  9 10  1  0
 10 11  1  0
 11 12  2  0
 11 13  1  0
 13 14  1  0
 13 20  1  0
 14 15  2  0
 15 16  1  0
 16 17  2  0
 17 18  1  0
 18 19  2  0
 19 14  1  0
M  END
> <CMPD_CHEMBLID>
CHEMBL98

> <STANDARD_TYPE>
IC50

> <RELATION>
>

> <STANDARD_VALUE>
100000

> <STANDARD_UNITS>
nM

> <Molecular_Weight>
264.3202

$$$$

  SciTegic11272012012D

 30 33  0  0  0  0            999 V2000
    3.3807   -1.0309    0.0000 C   0  0
    2.7242   -1.0988    0.0000 N   0  0
    2.1731   -0.4848    0.0000 C   0  0
    1.4293   -0.8252    0.0000 C   0  0
    1.5039   -1.6398    0.0000 C   0  0
    2.3105   -1.8126    0.0000 N   0  0
    0.7144   -0.4125    0.0000 C   0  0
    0.7144    0.4125    0.0000 C   0  0
    0.0000    0.8250    0.0000 N   0  0
   -0.7144    0.4125    0.0000 C   0  0
   -1.4290    0.8250    0.0000 C   0  0
   -2.1434    0.4125    0.0000 C   0  0
   -2.1434   -0.4125    0.0000 C   0  0
   -2.8574   -0.8267    0.0000 N   0  0
   -2.8563   -1.6521    0.0000 C   0  0
   -2.2841   -1.9812    0.0000 O   0  0
   -3.5703   -2.0663    0.0000 N   0  0
   -3.5691   -2.8918    0.0000 C   0  0
   -4.2831   -3.3060    0.0000 C   0  0
   -4.2819   -4.1315    0.0000 C   0  0
   -4.9949   -4.5465    0.0000 C   0  0
   -4.9921   -5.3715    0.0000 C   0  0
   -4.2762   -5.7815    0.0000 C   0  0
   -3.5631   -5.3666    0.0000 C   0  0
   -3.5660   -4.5416    0.0000 C   0  0
   -1.4290   -0.8250    0.0000 N   0  0
   -0.7144   -0.4125    0.0000 C   0  0
    0.0000   -0.8250    0.0000 C   0  0
   -4.0471   -1.7922    0.0000 H   0  0
   -3.3342   -0.5525    0.0000 H   0  0
  1  2  1  0
  2  3  1  0
  3  4  2  0
  4  5  1  0
  4  7  1  0
  5  6  2  0
  6  2  1  0
  7  8  2  0
  8  9  1  0
  9 10  2  0
 10 11  1  0
 11 12  2  0
 12 13  1  0
 13 14  1  0
 13 26  2  0
 14 15  1  0
 14 30  1  0
 15 16  2  0
 15 17  1  0
 17 18  1  0
 17 29  1  0
 18 19  1  0
 19 20  1  0
 20 21  2  0
 21 22  1  0
 22 23  2  0
 23 24  1  0
 24 25  2  0
 25 20  1  0
 26 27  1  0
 27 10  1  0
 27 28  2  0
 28  7  1  0
M  END
> <CMPD_CHEMBLID>
CHEMBL3318030

> <STANDARD_TYPE>
IC50

> <RELATION>
>

> <STANDARD_VALUE>
100000

> <STANDARD_UNITS>
nM

> <Molecular_Weight>
372.4231

$$$$

  SciTegic11272012012D

 29 32  0  0  0  0            999 V2000
    3.3807   -1.0309    0.0000 C   0  0
    2.7242   -1.0988    0.0000 N   0  0
    2.1731   -0.4848    0.0000 C   0  0
    1.4293   -0.8252    0.0000 C   0  0
    1.5039   -1.6398    0.0000 C   0  0
    2.3105   -1.8126    0.0000 N   0  0
    0.7144   -0.4125    0.0000 C   0  0
    0.7144    0.4125    0.0000 C   0  0
    0.0000    0.8250    0.0000 N   0  0
   -0.7144    0.4125    0.0000 C   0  0
   -1.4290    0.8250    0.0000 C   0  0
   -2.1434    0.4125    0.0000 C   0  0
   -2.1434   -0.4125    0.0000 C   0  0
   -2.8574   -0.8267    0.0000 N   0  0
   -2.8563   -1.6521    0.0000 C   0  0
   -2.2841   -1.9812    0.0000 O   0  0
   -3.5703   -2.0663    0.0000 N   0  0
   -3.5691   -2.8918    0.0000 C   0  0
   -4.2831   -3.3060    0.0000 C   0  0
   -4.2831   -4.1310    0.0000 C   0  0
   -4.9976   -4.5435    0.0000 C   0  0
   -5.7121   -4.1311    0.0000 C   0  0
   -5.7121   -3.3061    0.0000 C   0  0
   -4.9976   -2.8935    0.0000 C   0  0
   -1.4290   -0.8250    0.0000 N   0  0
   -0.7144   -0.4125    0.0000 C   0  0
    0.0000   -0.8250    0.0000 C   0  0
   -4.0471   -1.7922    0.0000 H   0  0
   -3.3342   -0.5525    0.0000 H   0  0
  1  2  1  0
  2  3  1  0
  3  4  2  0
  4  5  1  0
  4  7  1  0
  5  6  2  0
  6  2  1  0
  7  8  2  0
  8  9  1  0
  9 10  2  0
 10 11  1  0
 11 12  2  0
 12 13  1  0
 13 14  1  0
 13 25  2  0
 14 15  1  0
 14 29  1  0
 15 16  2  0
 15 17  1  0
 17 18  1  0
 17 28  1  0
 18 19  1  0
 19 20  2  0
 20 21  1  0
 21 22  2  0
 22 23  1  0
 23 24  2  0
 24 19  1  0
 25 26  1  0
 26 10  1  0
 26 27  2  0
 27  7  1  0
M  END
> <CMPD_CHEMBLID>
CHEMBL3318029

> <STANDARD_TYPE>
IC50

> <RELATION>
>

> <STANDARD_VALUE>
100000

> <STANDARD_UNITS>
nM

> <Molecular_Weight>
358.39652

$$$$

  SciTegic11272012012D

 28 31  0  0  0  0            999 V2000
    3.3807   -1.0309    0.0000 C   0  0
    2.7242   -1.0988    0.0000 N   0  0
    2.1731   -0.4848    0.0000 C   0  0
    1.4293   -0.8252    0.0000 C   0  0
    1.5039   -1.6398    0.0000 C   0  0
    2.3106   -1.8126    0.0000 N   0  0
    0.7145   -0.4125    0.0000 C   0  0
    0.7145    0.4125    0.0000 C   0  0
    0.0000    0.8250    0.0000 N   0  0
   -0.7145    0.4125    0.0000 C   0  0
   -1.4290    0.8250    0.0000 C   0  0
   -2.1434    0.4125    0.0000 C   0  0
   -2.1434   -0.4125    0.0000 C   0  0
   -2.8575   -0.8267    0.0000 N   0  0
   -2.8563   -1.6522    0.0000 C   0  0
   -2.2841   -1.9812    0.0000 O   0  0
   -3.5703   -2.0664    0.0000 N   0  0
   -3.5691   -2.8919    0.0000 C   0  0
   -4.2821   -3.3069    0.0000 C   0  0
   -4.2793   -4.1319    0.0000 C   0  0
   -3.5634   -4.5419    0.0000 C   0  0
   -2.8504   -4.1269    0.0000 C   0  0
   -2.8532   -3.3019    0.0000 C   0  0
   -1.4290   -0.8250    0.0000 N   0  0
   -0.7145   -0.4125    0.0000 C   0  0
    0.0000   -0.8250    0.0000 C   0  0
   -4.0471   -1.7922    0.0000 H   0  0
   -3.3343   -0.5525    0.0000 H   0  0
  1  2  1  0
  2  3  1  0
  3  4  2  0
  4  5  1  0
  4  7  1  0
  5  6  2  0
  6  2  1  0
  7  8  2  0
  8  9  1  0
  9 10  2  0
 10 11  1  0
 11 12  2  0
 12 13  1  0
 13 14  1  0
 13 24  2  0
 14 15  1  0
 14 28  1  0
 15 16  2  0
 15 17  1  0
 17 18  1  0
 17 27  1  0
 18 19  2  0
 19 20  1  0
 20 21  2  0
 21 22  1  0
 22 23  2  0
 23 18  1  0
 24 25  1  0
 25 10  1  0
 25 26  2  0
 26  7  1  0
M  END
> <CMPD_CHEMBLID>
CHEMBL3318028

> <STANDARD_TYPE>
IC50

> <RELATION>
>

> <STANDARD_VALUE>
100000

> <STANDARD_UNITS>
nM

> <Molecular_Weight>
344.36994

$$$$

  SciTegic11272012012D

 31 33  0  0  0  0            999 V2000
    2.8661    1.4822    0.0000 C   0  0
    2.8637    0.8222    0.0000 C   0  0
    2.1476    0.4116    0.0000 O   0  0
    2.1445   -0.4139    0.0000 C   0  0
    2.8583   -0.8275    0.0000 C   0  0
    2.8570   -1.6525    0.0000 C   0  0
    2.1419   -2.0639    0.0000 C   0  0
    1.4281   -1.6502    0.0000 C   0  0
    1.4293   -0.8252    0.0000 C   0  0
    0.7145   -0.4125    0.0000 C   0  0
    0.7145    0.4125    0.0000 N   0  0
    0.0000    0.8250    0.0000 N   0  0
   -0.7145    0.4125    0.0000 C   0  0
   -0.7145   -0.4125    0.0000 C   0  0
    0.0000   -0.8250    0.0000 N   0  0
   -1.4987   -0.6674    0.0000 C   0  0
   -1.7025   -1.2952    0.0000 C   0  0
   -1.9836    0.0000    0.0000 N   0  0
   -1.4987    0.6674    0.0000 N   0  0
   -1.7025    1.2952    0.0000 C   0  0
    2.1406   -2.8894    0.0000 S   0  0
    1.5684   -3.2183    0.0000 O   0  0
    2.1393   -3.5494    0.0000 O   0  0
    2.8545   -3.3037    0.0000 N   0  0
    2.8532   -4.1291    0.0000 C   0  0
    2.2810   -4.4580    0.0000 C   0  0
    2.8519   -4.7891    0.0000 C   0  0
    3.5672   -4.5434    0.0000 C   0  0
    3.5659   -5.3689    0.0000 O   0  0
    4.0416   -5.6450    0.0000 H   0  0
    3.3314   -3.0296    0.0000 H   0  0
  1  2  1  0
  2  3  1  0
  3  4  1  0
  4  5  2  0
  5  6  1  0
  6  7  2  0
  7  8  1  0
  7 21  1  0
  8  9  2  0
  9  4  1  0
  9 10  1  0
 10 11  2  0
 11 12  1  0
 12 13  2  0
 13 14  1  0
 14 15  2  0
 14 16  1  0
 15 10  1  0
 16 17  1  0
 16 18  2  0
 18 19  1  0
 19 13  1  0
 19 20  1  0
 21 22  2  0
 21 23  2  0
 21 24  1  0
 24 25  1  0
 24 31  1  0
 25 26  1  0
 25 27  1  0
 25 28  1  0
 28 29  1  0
 29 30  1  0
M  END
> <CMPD_CHEMBLID>
CHEMBL3401464

> <STANDARD_TYPE>
IC50

> <RELATION>
>

> <STANDARD_VALUE>
100000

> <STANDARD_UNITS>
nM

> <Molecular_Weight>
420.48596

$$$$

  SciTegic11272012012D

 32 35  0  0  0  0            999 V2000
   -2.4245   -7.5098    0.0000 O   0  5
   -2.6272   -6.8817    0.0000 N   0  3
   -3.2726   -6.7434    0.0000 O   0  0
   -2.0735   -6.2694    0.0000 C   0  0
   -1.2665   -6.4411    0.0000 C   0  0
   -0.7144   -5.8281    0.0000 C   0  0
   -0.9692   -5.0434    0.0000 C   0  0
   -0.4180   -4.4289    0.0000 N   0  0
   -0.6741   -3.6442    0.0000 C   0  0
   -1.3198   -3.5080    0.0000 O   0  0
   -0.1229   -3.0297    0.0000 C   0  0
   -0.3789   -2.2450    0.0000 C   0  0
    0.1713   -1.6316    0.0000 C   0  0
    0.9918   -1.7178    0.0000 C   0  0
    1.3273   -0.9641    0.0000 N   0  0
    2.1337   -0.7943    0.0000 C   0  0
    2.6853   -1.4084    0.0000 C   0  0
    3.4928   -1.2396    0.0000 C   0  0
    4.0428   -1.8545    0.0000 C   0  0
    3.7853   -2.6383    0.0000 C   0  0
    4.2254   -3.1302    0.0000 Cl  0  0
    2.9778   -2.8071    0.0000 C   0  0
    2.4278   -2.1922    0.0000 C   0  0
    0.7144   -0.4125    0.0000 C   0  0
    0.7144    0.4125    0.0000 C   0  0
    0.0000    0.8250    0.0000 C   0  0
   -0.7144    0.4125    0.0000 C   0  0
   -0.7144   -0.4125    0.0000 C   0  0
    0.0000   -0.8250    0.0000 C   0  0
   -1.7762   -4.8718    0.0000 C   0  0
   -2.3283   -5.4848    0.0000 C   0  0
    0.1201   -4.5425    0.0000 H   0  0
  1  2  1  0
  2  3  2  0
  2  4  1  0
  4  5  2  0
  5  6  1  0
  6  7  2  0
  7  8  1  0
  7 30  1  0
  8  9  1  0
  8 32  1  0
  9 10  2  0
  9 11  1  0
 11 12  1  0
 12 13  1  0
 13 14  2  0
 14 15  1  0
 15 16  1  0
 15 24  1  0
 16 17  1  0
 17 18  2  0
 18 19  1  0
 19 20  2  0
 20 21  1  0
 20 22  1  0
 22 23  2  0
 23 17  1  0
 24 25  2  0
 25 26  1  0
 26 27  2  0
 27 28  1  0
 28 29  2  0
 29 13  1  0
 29 24  1  0
 30 31  2  0
 31  4  1  0
M  CHG  2   1  -1   2   1
M  END
> <CMPD_CHEMBLID>
CHEMBL1221633

> <STANDARD_TYPE>
IC50

> <RELATION>
>

> <STANDARD_VALUE>
100000

> <STANDARD_UNITS>
nM

> <Molecular_Weight>
433.8869

$$$$

  SciTegic11272012012D

 23 24  0  0  0  0            999 V2000
    2.2308   -2.4295    0.0000 N   0  0
    1.4053   -2.4306    0.0000 C   0  0
    1.0763   -3.0028    0.0000 O   0  0
    0.9918   -1.7179    0.0000 C   0  0
    1.3273   -0.9642    0.0000 S   0  0
    0.7145   -0.4125    0.0000 C   0  0
    0.7145    0.4125    0.0000 C   0  0
    0.0000    0.8250    0.0000 C   0  0
   -0.7145    0.4125    0.0000 C   0  0
   -1.4302    0.8238    0.0000 S   0  0
   -2.1445    0.4100    0.0000 C   0  0
   -2.7168    0.7388    0.0000 F   0  0
   -2.1433   -0.2500    0.0000 F   0  0
   -2.7155    0.0789    0.0000 F   0  0
   -0.7145   -0.4125    0.0000 C   0  0
    0.0000   -0.8250    0.0000 C   0  0
    0.1713   -1.6316    0.0000 N   0  3
   -0.2704   -2.1221    0.0000 O   0  5
    1.4285    0.8267    0.0000 N   0  3
    1.4276    1.4867    0.0000 O   0  0
    2.0007    0.4977    0.0000 O   0  5
    2.5068   -2.9052    0.0000 H   0  0
    2.5050   -1.9527    0.0000 H   0  0
  1  2  1  0
  1 22  1  0
  1 23  1  0
  2  3  2  0
  2  4  1  0
  4  5  1  0
  5  6  1  0
  6  7  2  0
  7  8  1  0
  7 19  1  0
  8  9  2  0
  9 10  1  0
  9 15  1  0
 10 11  1  0
 11 12  1  0
 11 13  1  0
 11 14  1  0
 15 16  2  0
 16  6  1  0
 16 17  1  0
 17  4  2  0
 17 18  1  0
 19 20  2  0
 19 21  1  0
M  CHG  4  17   1  18  -1  19   1  21  -1
M  END
> <CMPD_CHEMBLID>
CHEMBL1222044

> <STANDARD_TYPE>
IC50

> <RELATION>
>

> <STANDARD_VALUE>
100000

> <STANDARD_UNITS>
nM

> <Molecular_Weight>
339.27097

$$$$

  SciTegic11272012012D

 30 32  0  0  0  0            999 V2000
    3.5731    0.2456    0.0000 C   0  0
    3.5730   -0.4144    0.0000 O   0  0
    2.8583   -0.8275    0.0000 C   0  0
    2.1445   -0.4139    0.0000 C   0  0
    1.4293   -0.8252    0.0000 C   0  0
    1.4281   -1.6502    0.0000 C   0  0
    2.1419   -2.0639    0.0000 C   0  0
    2.8570   -1.6525    0.0000 C   0  0
    3.5703   -2.0678    0.0000 O   0  0
    0.7144   -0.4125    0.0000 C   0  0
    0.7144    0.4125    0.0000 C   0  0
    0.0000    0.8250    0.0000 N   0  0
   -0.7144    0.4125    0.0000 C   0  0
   -1.4290    0.8250    0.0000 C   0  0
   -2.1434    0.4125    0.0000 C   0  0
   -2.1434   -0.4125    0.0000 C   0  0
   -2.8574   -0.8267    0.0000 N   0  0
   -2.8563   -1.6521    0.0000 C   0  0
   -2.2841   -1.9812    0.0000 O   0  0
   -3.5703   -2.0663    0.0000 N   0  0
   -3.5691   -2.8918    0.0000 C   0  0
   -4.1400   -3.2230    0.0000 C   0  0
   -3.5678   -3.5518    0.0000 C   0  0
   -2.9969   -3.2208    0.0000 C   0  0
   -1.4290   -0.8250    0.0000 N   0  0
   -0.7144   -0.4125    0.0000 C   0  0
    0.0000   -0.8250    0.0000 C   0  0
   -4.0471   -1.7922    0.0000 H   0  0
   -3.3342   -0.5525    0.0000 H   0  0
    3.5687   -2.6178    0.0000 H   0  0
  1  2  1  0
  2  3  1  0
  3  4  2  0
  4  5  1  0
  5  6  2  0
  5 10  1  0
  6  7  1  0
  7  8  2  0
  8  3  1  0
  8  9  1  0
  9 30  1  0
 10 11  2  0
 11 12  1  0
 12 13  2  0
 13 14  1  0
 14 15  2  0
 15 16  1  0
 16 17  1  0
 16 25  2  0
 17 18  1  0
 17 29  1  0
 18 19  2  0
 18 20  1  0
 20 21  1  0
 20 28  1  0
 21 22  1  0
 21 23  1  0
 21 24  1  0
 25 26  1  0
 26 13  1  0
 26 27  2  0
 27 10  1  0
M  END
> <CMPD_CHEMBLID>
CHEMBL3318026

> <STANDARD_TYPE>
IC50

> <RELATION>
>

> <STANDARD_VALUE>
100000

> <STANDARD_UNITS>
nM

> <Molecular_Weight>
366.41368

$$$$

  SciTegic11272012012D

 30 32  0  0  0  0            999 V2000
    4.1437   -1.7350    0.0000 C   0  0
    3.5720   -2.0649    0.0000 O   0  0
    2.8570   -1.6525    0.0000 C   0  0
    2.8583   -0.8275    0.0000 C   0  0
    2.1445   -0.4139    0.0000 C   0  0
    1.4293   -0.8252    0.0000 C   0  0
    1.4281   -1.6502    0.0000 C   0  0
    2.1419   -2.0639    0.0000 C   0  0
    2.1388   -2.8893    0.0000 O   0  0
    1.5663   -3.2176    0.0000 C   0  0
    0.7144   -0.4125    0.0000 C   0  0
    0.7144    0.4125    0.0000 C   0  0
    0.0000    0.8250    0.0000 N   0  0
   -0.7144    0.4125    0.0000 C   0  0
   -1.4290    0.8250    0.0000 C   0  0
   -2.1434    0.4125    0.0000 C   0  0
   -2.1434   -0.4125    0.0000 C   0  0
   -2.8574   -0.8267    0.0000 N   0  0
   -2.8563   -1.6521    0.0000 C   0  0
   -2.2841   -1.9812    0.0000 O   0  0
   -3.5703   -2.0663    0.0000 N   0  0
   -3.5691   -2.8918    0.0000 C   0  0
   -4.1400   -3.2230    0.0000 C   0  0
   -3.5678   -3.5518    0.0000 C   0  0
   -2.9969   -3.2208    0.0000 C   0  0
   -1.4290   -0.8250    0.0000 N   0  0
   -0.7144   -0.4125    0.0000 C   0  0
    0.0000   -0.8250    0.0000 C   0  0
   -4.0471   -1.7922    0.0000 H   0  0
   -3.3342   -0.5525    0.0000 H   0  0
  1  2  1  0
  2  3  1  0
  3  4  2  0
  4  5  1  0
  5  6  2  0
  6  7  1  0
  6 11  1  0
  7  8  2  0
  8  3  1  0
  8  9  1  0
  9 10  1  0
 11 12  2  0
 12 13  1  0
 13 14  2  0
 14 15  1  0
 15 16  2  0
 16 17  1  0
 17 18  1  0
 17 26  2  0
 18 19  1  0
 18 30  1  0
 19 20  2  0
 19 21  1  0
 21 22  1  0
 21 29  1  0
 22 23  1  0
 22 24  1  0
 22 25  1  0
 26 27  1  0
 27 14  1  0
 27 28  2  0
 28 11  1  0
M  END
> <CMPD_CHEMBLID>
CHEMBL3318025

> <STANDARD_TYPE>
IC50

> <RELATION>
>

> <STANDARD_VALUE>
100000

> <STANDARD_UNITS>
nM

> <Molecular_Weight>
380.44026

$$$$

  SciTegic11272012012D

 28 30  0  0  0  0            999 V2000
    2.7111   -3.2230    0.0000 C   0  0
    2.1402   -2.8918    0.0000 C   0  0
    2.1413   -2.0663    0.0000 N   0  0
    1.4273   -1.6521    0.0000 C   0  0
    0.8551   -1.9812    0.0000 O   0  0
    1.4285   -0.8267    0.0000 N   0  0
    0.7144   -0.4125    0.0000 C   0  0
    0.7144    0.4125    0.0000 C   0  0
    0.0000    0.8250    0.0000 C   0  0
   -0.7144    0.4125    0.0000 C   0  0
   -1.4290    0.8250    0.0000 N   0  0
   -2.1434    0.4125    0.0000 C   0  0
   -2.1434   -0.4125    0.0000 C   0  0
   -1.4290   -0.8250    0.0000 C   0  0
   -0.7144   -0.4125    0.0000 C   0  0
    0.0000   -0.8250    0.0000 N   0  0
   -2.8582   -0.8252    0.0000 C   0  0
   -3.5734   -0.4139    0.0000 C   0  0
   -4.2872   -0.8275    0.0000 C   0  0
   -4.2859   -1.6525    0.0000 C   0  0
   -5.0010   -2.0649    0.0000 O   0  0
   -5.5726   -1.7350    0.0000 C   0  0
   -3.5708   -2.0639    0.0000 C   0  0
   -3.5678   -2.8894    0.0000 O   0  0
   -2.9952   -3.2176    0.0000 C   0  0
   -2.8570   -1.6503    0.0000 C   0  0
    1.9053   -0.5525    0.0000 H   0  0
    2.6181   -1.7922    0.0000 H   0  0
  1  2  1  0
  2  3  1  0
  3  4  1  0
  3 28  1  0
  4  5  2  0
  4  6  1  0
  6  7  1  0
  6 27  1  0
  7  8  2  0
  8  9  1  0
  9 10  2  0
 10 11  1  0
 11 12  2  0
 12 13  1  0
 13 14  2  0
 13 17  1  0
 14 15  1  0
 15 10  1  0
 15 16  2  0
 16  7  1  0
 17 18  2  0
 18 19  1  0
 19 20  2  0
 20 21  1  0
 20 23  1  0
 21 22  1  0
 23 24  1  0
 23 26  2  0
 24 25  1  0
 26 17  1  0
M  END
> <CMPD_CHEMBLID>
CHEMBL3318024

> <STANDARD_TYPE>
IC50

> <RELATION>
>

> <STANDARD_VALUE>
100000

> <STANDARD_UNITS>
nM

> <Molecular_Weight>
352.3871

$$$$

  SciTegic11272012012D

 19 19  0  0  0  0            999 V2000
    1.4302   -0.8237    0.0000 O   0  0
    0.7144   -0.4125    0.0000 C   0  0
    0.7144    0.4125    0.0000 C   0  0
    0.0000    0.8250    0.0000 C   0  0
   -0.7144    0.4125    0.0000 C   0  0
   -1.4302    0.8237    0.0000 C   0  0
   -2.1444    0.4100    0.0000 C   0  0
   -2.1430   -0.4155    0.0000 C   0  0
   -2.1419   -1.0755    0.0000 N   0  0
   -2.8602    0.8213    0.0000 C   0  0
   -3.5744    0.4075    0.0000 N   0  0
   -2.8633    1.6467    0.0000 S   0  0
   -0.7144   -0.4125    0.0000 C   0  0
    0.0000   -0.8250    0.0000 C   0  0
   -0.0017   -1.6504    0.0000 O   0  0
   -0.4784   -1.9248    0.0000 H   0  0
   -3.3405    1.9202    0.0000 H   0  0
   -4.0514    0.6815    0.0000 H   0  0
    1.9061   -0.5481    0.0000 H   0  0
  1  2  1  0
  1 19  1  0
  2  3  2  0
  3  4  1  0
  4  5  2  0
  5  6  1  0
  5 13  1  0
  6  7  1  0
  7  8  1  0
  7 10  1  0
  8  9  3  0
 10 11  2  0
 10 12  1  0
 11 18  1  0
 12 17  1  0
 13 14  2  0
 14  2  1  0
 14 15  1  0
 15 16  1  0
M  END
> <CMPD_CHEMBLID>
CHEMBL78249

> <STANDARD_TYPE>
IC50

> <RELATION>
>

> <STANDARD_VALUE>
100000

> <STANDARD_UNITS>
nM

> <Molecular_Weight>
222.2636

$$$$

  SciTegic11272012012D

 22 23  0  0  0  0            999 V2000
    2.7111   -3.2230    0.0000 C   0  0
    2.1402   -2.8918    0.0000 N   0  0
    1.5680   -3.2208    0.0000 C   0  0
    2.1413   -2.0663    0.0000 C   0  0
    1.4273   -1.6521    0.0000 C   0  0
    0.8551   -1.9812    0.0000 C   0  0
    1.4285   -0.8267    0.0000 C   0  0
    2.0006   -0.4977    0.0000 O   0  0
    0.7144   -0.4125    0.0000 C   0  0
    0.7144    0.4125    0.0000 C   0  0
    0.0000    0.8250    0.0000 C   0  0
   -0.7144    0.4125    0.0000 C   0  0
   -1.4302    0.8237    0.0000 O   0  0
   -2.1444    0.4100    0.0000 C   0  0
   -2.8602    0.8213    0.0000 C   0  0
   -3.5747    0.4088    0.0000 C   0  0
   -4.2892    0.8213    0.0000 C   0  0
   -4.2892    1.6463    0.0000 C   0  0
   -3.5747    2.0588    0.0000 C   0  0
   -2.8602    1.6463    0.0000 C   0  0
   -0.7144   -0.4125    0.0000 C   0  0
    0.0000   -0.8250    0.0000 C   0  0
  1  2  1  0
  2  3  1  0
  2  4  1  0
  4  5  1  0
  5  6  2  0
  5  7  1  0
  7  8  2  0
  7  9  1  0
  9 10  2  0
 10 11  1  0
 11 12  2  0
 12 13  1  0
 12 21  1  0
 13 14  1  0
 14 15  1  0
 15 16  2  0
 16 17  1  0
 17 18  2  0
 18 19  1  0
 19 20  2  0
 20 15  1  0
 21 22  2  0
 22  9  1  0
M  END
> <CMPD_CHEMBLID>
CHEMBL552859

> <STANDARD_TYPE>
IC50

> <RELATION>
>

> <STANDARD_VALUE>
100000

> <STANDARD_UNITS>
nM

> <Molecular_Weight>
295.37554

$$$$

  SciTegic11272012012D

 15 16  0  0  0  0            999 V2000
    1.2861   -0.7425    0.0000 C   0  0
    0.7144   -0.4125    0.0000 C   0  0
    0.7144    0.4125    0.0000 N   0  0
    0.0000    0.8250    0.0000 N   0  0
   -0.7144    0.4125    0.0000 C   0  0
   -1.4293    0.8252    0.0000 C   0  0
   -1.4307    1.6502    0.0000 C   0  0
   -2.1458    2.0616    0.0000 C   0  0
   -2.8596    1.6480    0.0000 C   0  0
   -2.8583    0.8230    0.0000 C   0  0
   -2.1432    0.4116    0.0000 C   0  0
   -0.7144   -0.4125    0.0000 C   0  0
    0.0000   -0.8250    0.0000 N   0  0
   -1.4293   -0.8252    0.0000 C   0  0
   -2.0009   -1.1552    0.0000 N   0  0
  1  2  1  0
  2  3  2  0
  3  4  1  0
  4  5  2  0
  5  6  1  0
  5 12  1  0
  6  7  2  0
  7  8  1  0
  8  9  2  0
  9 10  1  0
 10 11  2  0
 11  6  1  0
 12 13  2  0
 12 14  1  0
 13  2  1  0
 14 15  3  0
M  END
> <CMPD_CHEMBLID>
CHEMBL1994808

> <STANDARD_TYPE>
Ki

> <RELATION>
=

> <STANDARD_VALUE>
100000

> <STANDARD_UNITS>
nM

> <Molecular_Weight>
196.20802

$$$$

  SciTegic11272012012D

 24 26  0  0  0  0            999 V2000
    2.7135   -1.7373    0.0000 O   0  0
    2.1413   -2.0663    0.0000 C   0  0
    1.4273   -1.6521    0.0000 C   0  0
    1.4285   -0.8267    0.0000 C   0  0
    0.7144   -0.4125    0.0000 N   0  0
    0.7144    0.4125    0.0000 C   0  0
    0.0000    0.8250    0.0000 C   0  0
   -0.7144    0.4125    0.0000 C   0  0
   -0.7144   -0.4125    0.0000 C   0  0
    0.0000   -0.8250    0.0000 C   0  0
    2.1401   -2.8918    0.0000 C   0  0
    2.8532   -3.3068    0.0000 C   0  0
    2.8503   -4.1318    0.0000 C   0  0
    2.1344   -4.5418    0.0000 C   0  0
    2.1299   -5.3673    0.0000 O   0  0
    1.4130   -5.7765    0.0000 C   0  0
    1.4084   -6.6019    0.0000 C   0  0
    0.6926   -7.0120    0.0000 C   0  0
    0.6897   -7.8370    0.0000 C   0  0
    1.4027   -8.2519    0.0000 C   0  0
    2.1186   -7.8420    0.0000 C   0  0
    2.1215   -7.0170    0.0000 C   0  0
    1.4214   -4.1268    0.0000 C   0  0
    1.4242   -3.3019    0.0000 C   0  0
  1  2  2  0
  2  3  1  0
  2 11  1  0
  3  4  1  0
  4  5  1  0
  5  6  1  0
  6  7  1  0
  7  8  1  0
  8  9  1  0
  9 10  1  0
 10  5  1  0
 11 12  2  0
 12 13  1  0
 13 14  2  0
 14 15  1  0
 14 23  1  0
 15 16  1  0
 16 17  1  0
 17 18  2  0
 18 19  1  0
 19 20  2  0
 20 21  1  0
 21 22  2  0
 22 17  1  0
 23 24  2  0
 24 11  1  0
M  END
> <CMPD_CHEMBLID>
CHEMBL545006

> <STANDARD_TYPE>
IC50

> <RELATION>
>

> <STANDARD_VALUE>
100000

> <STANDARD_UNITS>
nM

> <Molecular_Weight>
323.4287

$$$$

  SciTegic11272012012D

 21 22  0  0  0  0            999 V2000
    2.7111   -3.2230    0.0000 C   0  0
    2.1402   -2.8918    0.0000 N   0  0
    1.5680   -3.2208    0.0000 C   0  0
    2.1413   -2.0663    0.0000 C   0  0
    1.4273   -1.6521    0.0000 C   0  0
    1.4285   -0.8267    0.0000 C   0  0
    2.0006   -0.4977    0.0000 O   0  0
    0.7144   -0.4125    0.0000 C   0  0
    0.7144    0.4125    0.0000 C   0  0
    0.0000    0.8250    0.0000 C   0  0
   -0.7144    0.4125    0.0000 C   0  0
   -1.4302    0.8237    0.0000 O   0  0
   -2.1444    0.4100    0.0000 C   0  0
   -2.8602    0.8213    0.0000 C   0  0
   -3.5747    0.4088    0.0000 C   0  0
   -4.2892    0.8213    0.0000 C   0  0
   -4.2892    1.6463    0.0000 C   0  0
   -3.5747    2.0588    0.0000 C   0  0
   -2.8602    1.6463    0.0000 C   0  0
   -0.7144   -0.4125    0.0000 C   0  0
    0.0000   -0.8250    0.0000 C   0  0
  1  2  1  0
  2  3  1  0
  2  4  1  0
  4  5  1  0
  5  6  1  0
  6  7  2  0
  6  8  1  0
  8  9  2  0
  9 10  1  0
 10 11  2  0
 11 12  1  0
 11 20  1  0
 12 13  1  0
 13 14  1  0
 14 15  2  0
 15 16  1  0
 16 17  2  0
 17 18  1  0
 18 19  2  0
 19 14  1  0
 20 21  2  0
 21  8  1  0
M  END
> <CMPD_CHEMBLID>
CHEMBL544770

> <STANDARD_TYPE>
IC50

> <RELATION>
>

> <STANDARD_VALUE>
100000

> <STANDARD_UNITS>
nM

> <Molecular_Weight>
283.36484

$$$$

  SciTegic11272012012D

 26 28  0  0  0  0            999 V2000
    0.8551   -1.9811    0.0000 C   0  0
    1.4273   -1.6521    0.0000 C   0  0
    1.4285   -0.8267    0.0000 C   0  0
    0.7144   -0.4125    0.0000 N   0  0
    0.7144    0.4125    0.0000 C   0  0
    0.0000    0.8250    0.0000 C   0  0
   -0.7144    0.4125    0.0000 N   0  0
   -0.7144   -0.4125    0.0000 C   0  0
    0.0000   -0.8250    0.0000 C   0  0
    2.1413   -2.0663    0.0000 C   0  0
    2.7135   -1.7373    0.0000 O   0  0
    2.1401   -2.8918    0.0000 C   0  0
    2.8532   -3.3068    0.0000 C   0  0
    2.8503   -4.1318    0.0000 C   0  0
    2.1344   -4.5418    0.0000 C   0  0
    2.1299   -5.3673    0.0000 O   0  0
    1.4130   -5.7765    0.0000 C   0  0
    1.4084   -6.6019    0.0000 C   0  0
    0.6926   -7.0120    0.0000 C   0  0
    0.6897   -7.8370    0.0000 C   0  0
    1.4027   -8.2519    0.0000 C   0  0
    2.1186   -7.8420    0.0000 C   0  0
    2.1215   -7.0170    0.0000 C   0  0
    1.4214   -4.1268    0.0000 C   0  0
    1.4242   -3.3019    0.0000 C   0  0
   -1.1908    0.6875    0.0000 H   0  0
  1  2  2  0
  2  3  1  0
  2 10  1  0
  3  4  1  0
  4  5  1  0
  5  6  1  0
  6  7  1  0
  7  8  1  0
  7 26  1  0
  8  9  1  0
  9  4  1  0
 10 11  2  0
 10 12  1  0
 12 13  2  0
 13 14  1  0
 14 15  2  0
 15 16  1  0
 15 24  1  0
 16 17  1  0
 17 18  1  0
 18 19  2  0
 19 20  1  0
 20 21  2  0
 21 22  1  0
 22 23  2  0
 23 18  1  0
 24 25  2  0
 25 12  1  0
M  END
> <CMPD_CHEMBLID>
CHEMBL544538

> <STANDARD_TYPE>
IC50

> <RELATION>
>

> <STANDARD_VALUE>
100000

> <STANDARD_UNITS>
nM

> <Molecular_Weight>
336.42746

$$$$

  SciTegic11272012012D

 25 27  0  0  0  0            999 V2000
    0.8551   -1.9811    0.0000 C   0  0
    1.4273   -1.6521    0.0000 C   0  0
    1.4285   -0.8267    0.0000 C   0  0
    0.7144   -0.4125    0.0000 N   0  0
    0.7144    0.4125    0.0000 C   0  0
    0.0000    0.8250    0.0000 C   0  0
   -0.7144    0.4125    0.0000 C   0  0
   -0.7144   -0.4125    0.0000 C   0  0
    0.0000   -0.8250    0.0000 C   0  0
    2.1413   -2.0663    0.0000 C   0  0
    2.7135   -1.7373    0.0000 O   0  0
    2.1401   -2.8918    0.0000 C   0  0
    2.8532   -3.3068    0.0000 C   0  0
    2.8503   -4.1318    0.0000 C   0  0
    2.1344   -4.5418    0.0000 C   0  0
    2.1299   -5.3673    0.0000 O   0  0
    1.4130   -5.7765    0.0000 C   0  0
    1.4084   -6.6019    0.0000 C   0  0
    0.6926   -7.0120    0.0000 C   0  0
    0.6897   -7.8370    0.0000 C   0  0
    1.4027   -8.2519    0.0000 C   0  0
    2.1186   -7.8420    0.0000 C   0  0
    2.1215   -7.0170    0.0000 C   0  0
    1.4214   -4.1268    0.0000 C   0  0
    1.4242   -3.3019    0.0000 C   0  0
  1  2  2  0
  2  3  1  0
  2 10  1  0
  3  4  1  0
  4  5  1  0
  5  6  1  0
  6  7  1  0
  7  8  1  0
  8  9  1  0
  9  4  1  0
 10 11  2  0
 10 12  1  0
 12 13  2  0
 13 14  1  0
 14 15  2  0
 15 16  1  0
 15 24  1  0
 16 17  1  0
 17 18  1  0
 18 19  2  0
 19 20  1  0
 20 21  2  0
 21 22  1  0
 22 23  2  0
 23 18  1  0
 24 25  2  0
 25 12  1  0
M  END
> <CMPD_CHEMBLID>
CHEMBL544074

> <STANDARD_TYPE>
IC50

> <RELATION>
>

> <STANDARD_VALUE>
100000

> <STANDARD_UNITS>
nM

> <Molecular_Weight>
335.4394

$$$$

  SciTegic11272012012D

 25 27  0  0  0  0            999 V2000
    0.8551   -1.9811    0.0000 C   0  0
    1.4273   -1.6521    0.0000 C   0  0
    1.4285   -0.8267    0.0000 C   0  0
    0.7144   -0.4125    0.0000 N   0  0
    0.7144    0.4125    0.0000 C   0  0
    0.0000    0.8250    0.0000 C   0  0
   -0.7144    0.4125    0.0000 O   0  0
   -0.7144   -0.4125    0.0000 C   0  0
    0.0000   -0.8250    0.0000 C   0  0
    2.1413   -2.0663    0.0000 C   0  0
    2.7135   -1.7373    0.0000 O   0  0
    2.1401   -2.8918    0.0000 C   0  0
    2.8532   -3.3068    0.0000 C   0  0
    2.8503   -4.1318    0.0000 C   0  0
    2.1344   -4.5418    0.0000 C   0  0
    2.1299   -5.3673    0.0000 O   0  0
    1.4130   -5.7765    0.0000 C   0  0
    1.4084   -6.6019    0.0000 C   0  0
    0.6926   -7.0120    0.0000 C   0  0
    0.6897   -7.8370    0.0000 C   0  0
    1.4027   -8.2519    0.0000 C   0  0
    2.1186   -7.8420    0.0000 C   0  0
    2.1215   -7.0170    0.0000 C   0  0
    1.4214   -4.1268    0.0000 C   0  0
    1.4242   -3.3019    0.0000 C   0  0
  1  2  2  0
  2  3  1  0
  2 10  1  0
  3  4  1  0
  4  5  1  0
  5  6  1  0
  6  7  1  0
  7  8  1  0
  8  9  1  0
  9  4  1  0
 10 11  2  0
 10 12  1  0
 12 13  2  0
 13 14  1  0
 14 15  2  0
 15 16  1  0
 15 24  1  0
 16 17  1  0
 17 18  1  0
 18 19  2  0
 19 20  1  0
 20 21  2  0
 21 22  1  0
 22 23  2  0
 23 18  1  0
 24 25  2  0
 25 12  1  0
M  END
> <CMPD_CHEMBLID>
CHEMBL544067

> <STANDARD_TYPE>
IC50

> <RELATION>
>

> <STANDARD_VALUE>
100000

> <STANDARD_UNITS>
nM

> <Molecular_Weight>
337.41222

$$$$

  SciTegic11272012012D

 22 23  0  0  0  0            999 V2000
    2.8532   -3.9660    0.0000 C   0  0
    2.8542   -3.3060    0.0000 N   0  0
    3.4263   -2.9770    0.0000 C   0  0
    2.1402   -2.8918    0.0000 C   0  0
    2.1413   -2.0663    0.0000 C   0  0
    1.4273   -1.6521    0.0000 C   0  0
    1.4285   -0.8267    0.0000 C   0  0
    2.0006   -0.4977    0.0000 O   0  0
    0.7144   -0.4125    0.0000 C   0  0
    0.7144    0.4125    0.0000 C   0  0
    0.0000    0.8250    0.0000 C   0  0
   -0.7144    0.4125    0.0000 C   0  0
   -1.4302    0.8237    0.0000 O   0  0
   -2.1444    0.4100    0.0000 C   0  0
   -2.8602    0.8213    0.0000 C   0  0
   -3.5747    0.4088    0.0000 C   0  0
   -4.2892    0.8213    0.0000 C   0  0
   -4.2892    1.6463    0.0000 C   0  0
   -3.5747    2.0588    0.0000 C   0  0
   -2.8602    1.6463    0.0000 C   0  0
   -0.7144   -0.4125    0.0000 C   0  0
    0.0000   -0.8250    0.0000 C   0  0
  1  2  1  0
  2  3  1  0
  2  4  1  0
  4  5  1  0
  5  6  1  0
  6  7  1  0
  7  8  2  0
  7  9  1  0
  9 10  2  0
 10 11  1  0
 11 12  2  0
 12 13  1  0
 12 21  1  0
 13 14  1  0
 14 15  1  0
 15 16  2  0
 16 17  1  0
 17 18  2  0
 18 19  1  0
 19 20  2  0
 20 15  1  0
 21 22  2  0
 22  9  1  0
M  END
> <CMPD_CHEMBLID>
CHEMBL543362

> <STANDARD_TYPE>
IC50

> <RELATION>
>

> <STANDARD_VALUE>
100000

> <STANDARD_UNITS>
nM

> <Molecular_Weight>
297.39142

$$$$

  SciTegic11272012012D

 22 25  0  0  0  0            999 V2000
    0.0000    0.0000    0.0000 C   0  0
   -0.4140    0.7120    0.0000 C   0  0
   -1.2419    0.7120    0.0000 C   0  0
   -1.6559    0.0000    0.0000 C   0  0
   -2.0699   -0.7120    0.0000 C   0  0
   -2.8978   -0.7120    0.0000 C   0  0
   -3.3118    0.0000    0.0000 N   0  0
   -2.8978    0.7120    0.0000 C   0  0
   -2.0699    0.7120    0.0000 C   0  0
   -4.1373    0.0000    0.0000 C   0  0
   -4.5472   -0.7161    0.0000 N   0  0
   -5.3722   -0.7192    0.0000 C   0  0
   -5.7875   -0.0062    0.0000 N   0  0
   -5.3776    0.7099    0.0000 C   0  0
   -5.6354    1.4932    0.0000 N   0  0
   -4.9697    1.9806    0.0000 C   0  0
   -4.3004    1.4981    0.0000 N   0  0
   -4.5525    0.7129    0.0000 C   0  0
   -1.2419   -0.7120    0.0000 N   0  0
   -0.4140   -0.7120    0.0000 C   0  0
   -1.5162   -1.1888    0.0000 H   0  0
   -6.1592    1.6611    0.0000 H   0  0
  1  2  1  0
  2  3  1  0
  3  4  1  0
  4  5  1  0
  4 19  1  0
  5  6  1  0
  6  7  1  0
  7  8  1  0
  7 10  1  0
  8  9  1  0
  9  4  1  0
 10 11  2  0
 11 12  1  0
 12 13  2  0
 13 14  1  0
 14 15  1  0
 15 16  1  0
 15 22  1  0
 16 17  2  0
 17 18  1  0
 18 10  1  0
 18 14  2  0
 19 20  1  0
 19 21  1  0
 20  1  1  0
M  END
> <CMPD_CHEMBLID>
CHEMBL2420909

> <STANDARD_TYPE>
IC50

> <RELATION>
=

> <STANDARD_VALUE>
126000

> <STANDARD_UNITS>
nM

> <Molecular_Weight>
272.3488

$$$$

  SciTegic11272012012D

 37 41  0  0  0  0            999 V2000
    0.2263   -4.5663    0.0000 C   0  0
   -0.4193   -4.4289    0.0000 C   0  0
   -0.9714   -5.0420    0.0000 C   0  0
   -1.7784   -4.8703    0.0000 C   0  0
   -2.0332   -4.0856    0.0000 C   0  0
   -1.4811   -3.4726    0.0000 C   0  0
   -0.6741   -3.6442    0.0000 C   0  0
   -0.1229   -3.0298    0.0000 C   0  0
   -0.3790   -2.2450    0.0000 C   0  0
    0.1713   -1.6316    0.0000 N   0  0
    0.9918   -1.7178    0.0000 C   0  0
    1.3273   -0.9642    0.0000 N   0  0
    0.7145   -0.4125    0.0000 C   0  0
    0.7145    0.4125    0.0000 C   0  0
    1.4285    0.8267    0.0000 N   0  0
    1.4273    1.6522    0.0000 C   0  0
    1.8375    2.3178    0.0000 C   0  0
    1.0125    2.3149    0.0000 C   0  0
    0.0000    0.8250    0.0000 N   0  0
   -0.7145    0.4125    0.0000 C   0  0
   -0.7145   -0.4125    0.0000 N   0  0
    0.0000   -0.8250    0.0000 C   0  0
   -2.8402   -3.9122    0.0000 C   0  0
   -3.2828   -4.4019    0.0000 O   0  0
   -3.0941   -3.1267    0.0000 N   0  0
   -3.9011   -2.9533    0.0000 C   0  0
   -4.5026   -3.5078    0.0000 C   0  0
   -5.2170   -3.0952    0.0000 C   0  0
   -5.0453   -2.2882    0.0000 N   0  0
   -4.2248   -2.2021    0.0000 N   0  0
   -3.8914   -1.6325    0.0000 C   0  0
   -5.9698   -3.4302    0.0000 C   0  0
   -6.0394   -4.0866    0.0000 C   0  0
   -6.5036   -3.0420    0.0000 C   0  0
   -6.5730   -3.6982    0.0000 C   0  0
   -2.7253   -2.7187    0.0000 H   0  0
    1.9053    0.5525    0.0000 H   0  0
  1  2  1  0
  2  3  2  0
  3  4  1  0
  4  5  2  0
  5  6  1  0
  5 23  1  0
  6  7  2  0
  7  2  1  0
  7  8  1  0
  8  9  2  0
  9 10  1  0
 10 11  1  0
 11 12  2  0
 12 13  1  0
 13 14  2  0
 14 15  1  0
 14 19  1  0
 15 16  1  0
 15 37  1  0
 16 17  1  0
 17 18  1  0
 18 16  1  0
 19 20  2  0
 20 21  1  0
 21 22  2  0
 22 10  1  0
 22 13  1  0
 23 24  2  0
 23 25  1  0
 25 26  1  0
 25 36  1  0
 26 27  2  0
 27 28  1  0
 28 29  2  0
 28 32  1  0
 29 30  1  0
 30 26  1  0
 30 31  1  0
 32 33  1  0
 32 34  1  0
 32 35  1  0
M  END
> <CMPD_CHEMBLID>
CHEMBL556670

> <STANDARD_TYPE>
IC50

> <RELATION>
=

> <STANDARD_VALUE>
146000

> <STANDARD_UNITS>
nM

> <Molecular_Weight>
470.5694

$$$$

  SciTegic11272012012D

 27 30  0  0  0  0            999 V2000
    2.8613   -1.4813    0.0000 O   0  0
    2.8602   -0.8213    0.0000 C   0  0
    2.1444   -0.4100    0.0000 C   0  0
    1.4302   -0.8237    0.0000 S   0  0
    0.7144   -0.4125    0.0000 C   0  0
    0.7144    0.4125    0.0000 N   0  0
    0.0000    0.8250    0.0000 C   0  0
    0.0000    1.6500    0.0000 C   0  0
   -0.7145    2.0625    0.0000 C   0  0
   -1.4290    1.6500    0.0000 C   0  0
   -1.4290    0.8250    0.0000 C   0  0
   -0.7144    0.4125    0.0000 C   0  0
   -0.7144   -0.4125    0.0000 C   0  0
   -1.4293   -0.8252    0.0000 C   0  0
   -2.1731   -0.4848    0.0000 C   0  0
   -2.7242   -1.0988    0.0000 C   0  0
   -2.3105   -1.8126    0.0000 S   0  0
   -1.5039   -1.6398    0.0000 C   0  0
    0.0000   -0.8250    0.0000 C   0  0
    0.0000   -1.6504    0.0000 C   0  0
    0.0000   -2.3104    0.0000 N   0  0
    3.5744   -0.4075    0.0000 C   0  0
    4.2904   -0.8175    0.0000 C   0  0
    5.0034   -0.4025    0.0000 C   0  0
    5.0005    0.4225    0.0000 C   0  0
    4.2847    0.8325    0.0000 C   0  0
    3.5716    0.4175    0.0000 C   0  0
  1  2  2  0
  2  3  1  0
  2 22  1  0
  3  4  1  0
  4  5  1  0
  5  6  2  0
  6  7  1  0
  7  8  1  0
  8  9  1  0
  9 10  1  0
 10 11  1  0
 11 12  1  0
 12  7  2  0
 12 13  1  0
 13 14  1  0
 13 19  2  0
 14 15  1  0
 15 16  2  0
 16 17  1  0
 17 18  1  0
 18 14  2  0
 19  5  1  0
 19 20  1  0
 20 21  3  0
 22 23  2  0
 23 24  1  0
 24 25  2  0
 25 26  1  0
 26 27  2  0
 27 22  1  0
M  END
> <CMPD_CHEMBLID>
CHEMBL1170563

> <STANDARD_TYPE>
IC50

> <RELATION>
>

> <STANDARD_VALUE>
150000

> <STANDARD_UNITS>
nM

> <Molecular_Weight>
390.52112

$$$$

  SciTegic11272012012D

 40 43  0  0  0  0            999 V2000
    4.8612   -0.4880    0.0000 C   0  0
    4.2901   -0.8188    0.0000 N   0  0
    4.2912   -1.4788    0.0000 C   0  0
    3.5744   -0.4075    0.0000 C   0  0
    2.8601   -0.8212    0.0000 C   0  0
    2.1444   -0.4100    0.0000 C   0  0
    1.4301   -0.8237    0.0000 N   0  0
    0.7144   -0.4125    0.0000 C   0  0
    0.7144    0.4125    0.0000 N   0  0
    0.0000    0.8250    0.0000 C   0  0
   -0.7144    0.4125    0.0000 N   0  0
   -0.7144   -0.4125    0.0000 C   0  0
    0.0000   -0.8250    0.0000 C   0  0
   -0.1713   -1.6315    0.0000 N   0  0
   -0.9917   -1.7178    0.0000 C   0  0
   -1.3273   -0.9641    0.0000 N   0  0
   -2.1336   -0.7943    0.0000 C   0  0
   -2.6852   -1.4084    0.0000 C   0  0
   -3.4929   -1.2383    0.0000 C   0  0
   -3.7478   -0.4536    0.0000 C   0  0
   -4.5547   -0.2820    0.0000 C   0  0
   -4.8113    0.5026    0.0000 N   0  0
   -5.6189    0.6731    0.0000 C   0  0
   -6.0597    0.1820    0.0000 O   0  0
   -5.8755    1.4577    0.0000 C   0  0
   -6.6824    1.6294    0.0000 C   0  0
   -6.9372    2.4140    0.0000 C   0  0
   -6.3852    3.0270    0.0000 C   0  0
   -5.5782    2.8554    0.0000 C   0  0
   -5.3234    2.0708    0.0000 C   0  0
   -5.0258    3.4687    0.0000 C   0  0
   -5.2293    4.0966    0.0000 F   0  0
   -4.3803    3.3312    0.0000 F   0  0
   -4.5839    3.9589    0.0000 F   0  0
   -5.1068   -0.8950    0.0000 C   0  0
   -4.8520   -1.6797    0.0000 C   0  0
   -4.0451   -1.8513    0.0000 C   0  0
   -3.8412   -2.4790    0.0000 C   0  0
   -4.4439    0.9119    0.0000 H   0  0
    1.4311   -1.3737    0.0000 H   0  0
  1  2  1  0
  2  3  1  0
  2  4  1  0
  4  5  1  0
  5  6  1  0
  6  7  1  0
  7  8  1  0
  7 40  1  0
  8  9  2  0
  9 10  1  0
 10 11  2  0
 11 12  1  0
 12 13  2  0
 13  8  1  0
 13 14  1  0
 14 15  2  0
 15 16  1  0
 16 12  1  0
 16 17  1  0
 17 18  2  0
 18 19  1  0
 19 20  2  0
 20 21  1  0
 21 22  1  0
 21 35  2  0
 22 23  1  0
 22 39  1  0
 23 24  2  0
 23 25  1  0
 25 26  2  0
 26 27  1  0
 27 28  2  0
 28 29  1  0
 29 30  2  0
 29 31  1  0
 30 25  1  0
 31 32  1  0
 31 33  1  0
 31 34  1  0
 35 36  1  0
 36 37  2  0
 37 19  1  0
 37 38  1  0
M  END
> <CMPD_CHEMBLID>
CHEMBL559068

> <STANDARD_TYPE>
IC50

> <RELATION>
=

> <STANDARD_VALUE>
157000

> <STANDARD_UNITS>
nM

> <Molecular_Weight>
523.55273

$$$$

  SciTegic11272012012D

 38 42  0  0  0  0            999 V2000
    0.2263   -4.5662    0.0000 C   0  0
   -0.4193   -4.4289    0.0000 C   0  0
   -0.9714   -5.0419    0.0000 C   0  0
   -1.7784   -4.8702    0.0000 C   0  0
   -2.0332   -4.0856    0.0000 C   0  0
   -1.4810   -3.4726    0.0000 C   0  0
   -0.6741   -3.6442    0.0000 C   0  0
   -0.1229   -3.0297    0.0000 C   0  0
   -0.3789   -2.2450    0.0000 C   0  0
    0.1713   -1.6316    0.0000 N   0  0
    0.9918   -1.7178    0.0000 C   0  0
    1.3273   -0.9641    0.0000 N   0  0
    0.7144   -0.4125    0.0000 C   0  0
    0.7144    0.4125    0.0000 C   0  0
    1.4285    0.8267    0.0000 N   0  0
    1.4273    1.6521    0.0000 C   0  0
    1.8374    2.3178    0.0000 C   0  0
    1.0124    2.3149    0.0000 C   0  0
    0.0000    0.8250    0.0000 N   0  0
   -0.7144    0.4125    0.0000 C   0  0
   -0.7144   -0.4125    0.0000 N   0  0
    0.0000   -0.8250    0.0000 C   0  0
   -2.8402   -3.9122    0.0000 C   0  0
   -3.2828   -4.4018    0.0000 O   0  0
   -3.0941   -3.1267    0.0000 N   0  0
   -3.9011   -2.9533    0.0000 C   0  0
   -4.4533   -3.5663    0.0000 C   0  0
   -5.2603   -3.3946    0.0000 C   0  0
   -5.5150   -2.6100    0.0000 C   0  0
   -4.9629   -1.9969    0.0000 C   0  0
   -4.1560   -2.1686    0.0000 C   0  0
   -3.7143   -1.6782    0.0000 F   0  0
   -5.8127   -4.0080    0.0000 C   0  0
   -5.6092   -4.6358    0.0000 F   0  0
   -6.4582   -3.8704    0.0000 F   0  0
   -6.2547   -4.4981    0.0000 F   0  0
   -2.7252   -2.7186    0.0000 H   0  0
    1.9053    0.5525    0.0000 H   0  0
  1  2  1  0
  2  3  2  0
  3  4  1  0
  4  5  2  0
  5  6  1  0
  5 23  1  0
  6  7  2  0
  7  2  1  0
  7  8  1  0
  8  9  2  0
  9 10  1  0
 10 11  1  0
 11 12  2  0
 12 13  1  0
 13 14  2  0
 14 15  1  0
 14 19  1  0
 15 16  1  0
 15 38  1  0
 16 17  1  0
 17 18  1  0
 18 16  1  0
 19 20  2  0
 20 21  1  0
 21 22  2  0
 22 10  1  0
 22 13  1  0
 23 24  2  0
 23 25  1  0
 25 26  1  0
 25 37  1  0
 26 27  2  0
 27 28  1  0
 28 29  2  0
 28 33  1  0
 29 30  1  0
 30 31  2  0
 31 26  1  0
 31 32  1  0
 33 34  1  0
 33 35  1  0
 33 36  1  0
M  END
> <CMPD_CHEMBLID>
CHEMBL551838

> <STANDARD_TYPE>
IC50

> <RELATION>
=

> <STANDARD_VALUE>
236000

> <STANDARD_UNITS>
nM

> <Molecular_Weight>
496.45951

$$$$

  SciTegic11272012012D

 40 44  0  0  0  0            999 V2000
    0.2263   -4.5662    0.0000 C   0  0
   -0.4193   -4.4289    0.0000 C   0  0
   -0.9714   -5.0419    0.0000 C   0  0
   -1.7784   -4.8702    0.0000 C   0  0
   -2.0332   -4.0855    0.0000 C   0  0
   -2.8402   -3.9121    0.0000 N   0  0
   -3.0941   -3.1267    0.0000 C   0  0
   -2.6515   -2.6371    0.0000 O   0  0
   -3.9011   -2.9533    0.0000 C   0  0
   -4.1559   -2.1686    0.0000 C   0  0
   -4.9628   -1.9969    0.0000 C   0  0
   -5.5150   -2.6100    0.0000 C   0  0
   -5.2602   -3.3946    0.0000 C   0  0
   -4.4533   -3.5663    0.0000 C   0  0
   -5.8126   -4.0079    0.0000 C   0  0
   -6.4583   -3.8710    0.0000 F   0  0
   -5.6086   -4.6356    0.0000 F   0  0
   -6.2541   -4.4985    0.0000 F   0  0
   -1.4810   -3.4726    0.0000 C   0  0
   -0.6741   -3.6442    0.0000 C   0  0
   -0.1229   -3.0297    0.0000 C   0  0
   -0.3789   -2.2450    0.0000 C   0  0
    0.1713   -1.6316    0.0000 N   0  0
    0.9918   -1.7178    0.0000 C   0  0
    1.3273   -0.9641    0.0000 N   0  0
    0.7144   -0.4125    0.0000 C   0  0
    0.7144    0.4125    0.0000 C   0  0
    1.4285    0.8267    0.0000 N   0  0
    1.4273    1.6521    0.0000 C   0  0
    2.1403    2.0672    0.0000 C   0  0
    2.1375    2.8922    0.0000 C   0  0
    1.4216    3.3022    0.0000 C   0  0
    0.7086    2.8872    0.0000 C   0  0
    0.7114    2.0622    0.0000 N   0  0
    0.0000    0.8250    0.0000 N   0  0
   -0.7144    0.4125    0.0000 C   0  0
   -0.7144   -0.4125    0.0000 N   0  0
    0.0000   -0.8250    0.0000 C   0  0
    1.9052    0.5525    0.0000 H   0  0
   -3.2090   -4.3202    0.0000 H   0  0
  1  2  1  0
  2  3  2  0
  3  4  1  0
  4  5  2  0
  5  6  1  0
  5 19  1  0
  6  7  1  0
  6 40  1  0
  7  8  2  0
  7  9  1  0
  9 10  2  0
 10 11  1  0
 11 12  2  0
 12 13  1  0
 13 14  2  0
 13 15  1  0
 14  9  1  0
 15 16  1  0
 15 17  1  0
 15 18  1  0
 19 20  2  0
 20  2  1  0
 20 21  1  0
 21 22  2  0
 22 23  1  0
 23 24  1  0
 24 25  2  0
 25 26  1  0
 26 27  2  0
 27 28  1  0
 27 35  1  0
 28 29  1  0
 28 39  1  0
 29 30  2  0
 30 31  1  0
 31 32  2  0
 32 33  1  0
 33 34  2  0
 34 29  1  0
 35 36  2  0
 36 37  1  0
 37 38  2  0
 38 23  1  0
 38 26  1  0
M  END
> <CMPD_CHEMBLID>
CHEMBL551030

> <STANDARD_TYPE>
IC50

> <RELATION>
=

> <STANDARD_VALUE>
243000

> <STANDARD_UNITS>
nM

> <Molecular_Weight>
515.48921

$$$$

  SciTegic11272012012D

 36 40  0  0  0  0            999 V2000
    0.2263   -4.5663    0.0000 C   0  0
   -0.4193   -4.4289    0.0000 C   0  0
   -0.9714   -5.0420    0.0000 C   0  0
   -1.7784   -4.8703    0.0000 C   0  0
   -2.0332   -4.0856    0.0000 C   0  0
   -1.4811   -3.4726    0.0000 C   0  0
   -0.6741   -3.6442    0.0000 C   0  0
   -0.1229   -3.0298    0.0000 C   0  0
   -0.3790   -2.2450    0.0000 C   0  0
    0.1713   -1.6316    0.0000 N   0  0
    0.9918   -1.7178    0.0000 C   0  0
    1.3273   -0.9642    0.0000 N   0  0
    0.7145   -0.4125    0.0000 C   0  0
    0.7145    0.4125    0.0000 C   0  0
    1.4285    0.8267    0.0000 N   0  0
    1.4273    1.6522    0.0000 C   0  0
    1.8375    2.3178    0.0000 C   0  0
    1.0125    2.3149    0.0000 C   0  0
    0.0000    0.8250    0.0000 N   0  0
   -0.7145    0.4125    0.0000 C   0  0
   -0.7145   -0.4125    0.0000 N   0  0
    0.0000   -0.8250    0.0000 C   0  0
   -2.8402   -3.9122    0.0000 C   0  0
   -3.2828   -4.4019    0.0000 O   0  0
   -3.0941   -3.1267    0.0000 N   0  0
   -3.9011   -2.9533    0.0000 C   0  0
   -4.2248   -2.2021    0.0000 N   0  0
   -5.0453   -2.2882    0.0000 C   0  0
   -5.2170   -3.0952    0.0000 C   0  0
   -4.5026   -3.5078    0.0000 S   0  0
   -5.9698   -3.4302    0.0000 C   0  0
   -6.5040   -3.0425    0.0000 C   0  0
   -6.0387   -4.0866    0.0000 C   0  0
   -6.5727   -3.6988    0.0000 C   0  0
   -2.7253   -2.7187    0.0000 H   0  0
    1.9053    0.5525    0.0000 H   0  0
  1  2  1  0
  2  3  2  0
  3  4  1  0
  4  5  2  0
  5  6  1  0
  5 23  1  0
  6  7  2  0
  7  2  1  0
  7  8  1  0
  8  9  2  0
  9 10  1  0
 10 11  1  0
 11 12  2  0
 12 13  1  0
 13 14  2  0
 14 15  1  0
 14 19  1  0
 15 16  1  0
 15 36  1  0
 16 17  1  0
 17 18  1  0
 18 16  1  0
 19 20  2  0
 20 21  1  0
 21 22  2  0
 22 10  1  0
 22 13  1  0
 23 24  2  0
 23 25  1  0
 25 26  1  0
 25 35  1  0
 26 27  2  0
 27 28  1  0
 28 29  2  0
 29 30  1  0
 29 31  1  0
 30 26  1  0
 31 32  1  0
 31 33  1  0
 31 34  1  0
M  END
> <CMPD_CHEMBLID>
CHEMBL559438

> <STANDARD_TYPE>
IC50

> <RELATION>
=

> <STANDARD_VALUE>
267000

> <STANDARD_UNITS>
nM

> <Molecular_Weight>
473.59318

$$$$

  SciTegic11272012012D

 24 27  0  0  0  0            999 V2000
    5.0024   -2.7205    0.0000 C   0  0
    5.0032   -2.0605    0.0000 O   0  0
    4.2892   -1.6463    0.0000 C   0  0
    4.2892   -0.8213    0.0000 C   0  0
    3.5747   -0.4088    0.0000 C   0  0
    2.8602   -0.8213    0.0000 C   0  0
    2.1445   -0.4100    0.0000 C   0  0
    1.4302   -0.8237    0.0000 N   0  0
    0.7145   -0.4125    0.0000 C   0  0
    0.7145    0.4125    0.0000 C   0  0
    0.0000    0.8250    0.0000 C   0  0
   -0.7145    0.4125    0.0000 N   0  0
   -0.7145   -0.4125    0.0000 C   0  0
   -1.3273   -0.9642    0.0000 O   0  0
   -0.9918   -1.7178    0.0000 C   0  0
   -1.3274   -2.4709    0.0000 C   0  0
   -0.8425   -3.1383    0.0000 C   0  0
   -0.0220   -3.0520    0.0000 C   0  0
    0.3136   -2.2984    0.0000 C   0  0
   -0.1713   -1.6316    0.0000 C   0  0
    0.0000   -0.8250    0.0000 C   0  0
    2.8603   -1.6463    0.0000 C   0  0
    3.5748   -2.0588    0.0000 C   0  0
    1.4312   -1.3738    0.0000 H   0  0
  1  2  1  0
  2  3  1  0
  3  4  2  0
  4  5  1  0
  5  6  2  0
  6  7  1  0
  6 22  1  0
  7  8  1  0
  8  9  1  0
  8 24  1  0
  9 10  2  0
 10 11  1  0
 11 12  2  0
 12 13  1  0
 13 14  1  0
 14 15  1  0
 15 16  2  0
 16 17  1  0
 17 18  2  0
 18 19  1  0
 19 20  2  0
 20 15  1  0
 20 21  1  0
 21  9  1  0
 21 13  2  0
 22 23  2  0
 23  3  1  0
M  END
> <CMPD_CHEMBLID>
CHEMBL1290072

> <STANDARD_TYPE>
IC50

> <RELATION>
=

> <STANDARD_VALUE>
392000

> <STANDARD_UNITS>
nM

> <Molecular_Weight>
304.34254

$$$$

  SciTegic11272012012D

 19 19  0  0  0  0            999 V2000
    3.5734    0.2525    0.0000 C   0  0
    3.5745   -0.4075    0.0000 C   0  0
    2.8602   -0.8213    0.0000 C   0  0
    2.8617   -1.6467    0.0000 C   0  0
    2.8628   -2.3068    0.0000 N   0  0
    2.1445   -0.4100    0.0000 C   0  0
    2.1433    0.2500    0.0000 O   0  0
    1.4302   -0.8238    0.0000 N   0  0
    0.7145   -0.4125    0.0000 C   0  0
    0.7145    0.4125    0.0000 C   0  0
    0.0000    0.8250    0.0000 C   0  0
    0.0000    1.4850    0.0000 Br  0  0
   -0.7145    0.4125    0.0000 C   0  0
   -0.7145   -0.4125    0.0000 C   0  0
    0.0000   -0.8250    0.0000 C   0  0
    0.0000   -1.4850    0.0000 Br  0  0
    4.2903   -0.8188    0.0000 O   0  0
    4.7662   -0.5431    0.0000 H   0  0
    1.4312   -1.3738    0.0000 H   0  0
  1  2  1  0
  2  3  2  0
  2 17  1  0
  3  4  1  0
  3  6  1  0
  4  5  3  0
  6  7  2  0
  6  8  1  0
  8  9  1  0
  8 19  1  0
  9 10  2  0
 10 11  1  0
 11 12  1  0
 11 13  2  0
 13 14  1  0
 14 15  2  0
 15  9  1  0
 15 16  1  0
 17 18  1  0
M  END
> <CMPD_CHEMBLID>
CHEMBL228043

> <STANDARD_TYPE>
IC50

> <RELATION>
>

> <STANDARD_VALUE>
500000

> <STANDARD_UNITS>
nM

> <Molecular_Weight>
360.00142

$$$$

  SciTegic11272012012D

 23 25  0  0  0  0            999 V2000
   -0.1742   -2.8725    0.0000 C   0  0
   -0.3790   -2.2450    0.0000 S   0  0
    0.1713   -1.6316    0.0000 C   0  0
    0.9918   -1.7179    0.0000 N   0  0
    1.3273   -0.9642    0.0000 N   0  0
    0.7145   -0.4125    0.0000 C   0  0
    0.7145    0.4125    0.0000 N   0  0
    0.0000    0.8250    0.0000 C   0  0
    0.0000    1.4850    0.0000 C   0  0
   -0.7145    0.4125    0.0000 N   0  0
   -0.7145   -0.4125    0.0000 C   0  0
   -1.2861   -0.7425    0.0000 O   0  0
    0.0000   -0.8250    0.0000 C   0  0
    2.1348   -0.7925    0.0000 C   0  0
    2.7291   -1.3607    0.0000 C   0  0
    2.5728   -2.0019    0.0000 Cl  0  0
    3.5209   -1.1288    0.0000 C   0  0
    3.7159   -0.3272    0.0000 C   0  0
    4.3494   -0.1417    0.0000 Cl  0  0
    3.1193    0.2426    0.0000 C   0  0
    2.3275    0.0107    0.0000 C   0  0
    1.8495    0.4658    0.0000 Cl  0  0
   -1.1908    0.6875    0.0000 H   0  0
  1  2  1  0
  2  3  1  0
  3  4  2  0
  4  5  1  0
  5  6  1  0
  5 14  1  0
  6  7  1  0
  7  8  2  0
  8  9  1  0
  8 10  1  0
 10 11  1  0
 10 23  1  0
 11 12  2  0
 11 13  1  0
 13  3  1  0
 13  6  2  0
 14 15  2  0
 15 16  1  0
 15 17  1  0
 17 18  2  0
 18 19  1  0
 18 20  1  0
 20 21  2  0
 21 14  1  0
 21 22  1  0
M  END
> <CMPD_CHEMBLID>
CHEMBL370283

> <STANDARD_TYPE>
IC50

> <RELATION>
>

> <STANDARD_VALUE>
500000

> <STANDARD_UNITS>
nM

> <Molecular_Weight>
375.66076

$$$$

  SciTegic11272012012D

 22 25  0  0  0  0            999 V2000
    0.4481   -5.7444    0.0000 C   0  0
    1.0700   -5.5232    0.0000 O   0  0
    1.2197   -4.7114    0.0000 C   0  0
    1.9966   -4.4337    0.0000 C   0  0
    2.1445   -3.6221    0.0000 C   0  0
    1.5174   -3.0903    0.0000 C   0  0
    0.7387   -3.3658    0.0000 C   0  0
    0.5908   -4.1775    0.0000 C   0  0
    1.6038   -2.2694    0.0000 C   0  0
    2.3183   -1.8569    0.0000 N   0  0
    2.1468   -1.0499    0.0000 N   0  0
    1.3273   -0.9642    0.0000 C   0  0
    0.7145   -0.4125    0.0000 C   0  0
    0.7145    0.4125    0.0000 C   0  0
    0.0000    0.8250    0.0000 C   0  0
   -0.7145    0.4125    0.0000 C   0  0
   -0.7145   -0.4125    0.0000 C   0  0
    0.0000   -0.8250    0.0000 C   0  0
    0.1713   -1.6316    0.0000 C   0  0
   -0.2704   -2.1220    0.0000 O   0  0
    0.9918   -1.7178    0.0000 C   0  0
    2.8208   -2.0806    0.0000 H   0  0
  1  2  1  0
  2  3  1  0
  3  4  2  0
  4  5  1  0
  5  6  2  0
  6  7  1  0
  6  9  1  0
  7  8  2  0
  8  3  1  0
  9 10  1  0
 10 11  1  0
 10 22  1  0
 11 12  2  0
 12 13  1  0
 13 14  2  0
 14 15  1  0
 15 16  2  0
 16 17  1  0
 17 18  2  0
 18 13  1  0
 18 19  1  0
 19 20  2  0
 19 21  1  0
 21  9  2  0
 21 12  1  0
M  END
> <CMPD_CHEMBLID>
CHEMBL281470

> <STANDARD_TYPE>
IC50

> <RELATION>
>

> <STANDARD_VALUE>
725000

> <STANDARD_UNITS>
nM

> <Molecular_Weight>
276.28938

$$$$

  SciTegic11272012012D

 14 15  0  0  0  0            999 V2000
    2.1081   -1.6791    0.0000 C   0  0
    1.7190   -1.1459    0.0000 C   0  0
    0.8983   -1.2334    0.0000 C   0  0
    0.6309   -1.8368    0.0000 O   0  0
    0.4125   -0.5678    0.0000 N   0  0
    0.6674    0.2169    0.0000 C   0  0
    0.0000    0.7018    0.0000 C   0  0
   -0.6674    0.2169    0.0000 C   0  0
   -0.4125   -0.5678    0.0000 C   0  0
   -0.8977   -1.2355    0.0000 C   0  0
   -1.7113   -1.2893    0.0000 O   0  0
   -1.9041   -2.0914    0.0000 C   0  0
   -1.2007   -2.5226    0.0000 C   0  0
   -0.5733   -1.9870    0.0000 C   0  0
  1  2  2  0
  2  3  1  0
  3  4  2  0
  3  5  1  0
  5  6  1  0
  6  7  1  0
  7  8  1  0
  8  9  1  0
  9  5  1  0
  9 10  1  0
 10 11  1  0
 11 12  1  0
 12 13  2  0
 13 14  1  0
 14 10  2  0
M  END
> <CMPD_CHEMBLID>
CHEMBL3617729

> <STANDARD_TYPE>
Ki

> <RELATION>
>

> <STANDARD_VALUE>
1250000

> <STANDARD_UNITS>
nM

> <Molecular_Weight>
191.22642

$$$$
